2019-07-02 12:52:37,147  INFO Gbl:63 JVM: 1.8.0_172; Oracle Corporation; mixed mode; 64-bit
2019-07-02 12:52:37,147  INFO Gbl:67 OS: Windows 10; 10.0; amd64
2019-07-02 12:52:37,147  INFO Gbl:70 CPU cores: 8
2019-07-02 12:52:37,147  INFO Gbl:71 max. Memory: 3605.5MB (3780640768B)
2019-07-02 12:52:37,147  INFO Gbl:109 MATSim-Build: r03cd8257de400e3ee2681bec5be87eac8d67f5a3 (2019-03-11 03:10:28)
2019-07-02 12:52:37,149  INFO ControlerListenerManagerImpl:107 calling notifyStartup on org.matsim.counts.CountsControlerListener
2019-07-02 12:52:37,149  INFO ControlerListenerManagerImpl:107 calling notifyStartup on org.matsim.analysis.ModeStatsControlerListener
2019-07-02 12:52:37,149 DEBUG NetworkRoutingProvider:75 requesting network routing module with routingMode=car;	mode=car
2019-07-02 12:52:37,152  INFO ControlerListenerManagerImpl:107 calling notifyStartup on org.matsim.analysis.ScoreStatsControlerListener
2019-07-02 12:52:37,152  INFO ControlerListenerManagerImpl:110 all ControlerStartupListeners called.
2019-07-02 12:52:37,152  INFO ControlerUtils:58 config dump before iterations start
2019-07-02 12:52:37,163  INFO ControlerUtils:62 

<?xml version="1.0" encoding="UTF-8"?>
<!DOCTYPE config SYSTEM "http://www.matsim.org/files/dtd/config_v2.dtd">
<config>
	<module name="DiscreteModeChoice" >
		<!-- Trips tested with the modes listed here will be cached for each combination of trip and agent during one replanning pass. -->
		<param name="cachedModes" value="pt, car, walk, bike" />
		<!-- Defines whether to run a runtime check that verifies that everything is set up correctl for a 'mode-choice-in-the-loop' setup. -->
		<param name="enforceSinglePlan" value="false" />
		<!-- Defines what happens if there is no feasible choice alternative for an agent: IGNORE_AGENT, INITIAL_CHOICE, EXCEPTION -->
		<param name="fallbackBehaviour" value="IGNORE_AGENT" />
		<!-- Defines which ModeAvailability component to use. Built-in choices: Default, Car -->
		<param name="modeAvailability" value="Default" />
		<param name="modeChainGenerator" value="filterRandomThreshold" />
		<!-- Main model type: Trip, Tour -->
		<param name="modelType" value="Tour" />
		<!-- Defines whether the DiscreteModeChoice strategy should be followed by a rerouting of all trips. If the estimator returns alternatives with routes attached this is not necessary. -->
		<param name="performReroute" value="true" />
		<!-- Defines which Selector component to use. Built-in choices: Maximum, MultinomialLogit, Random -->
		<param name="selector" value="MultinomialLogit" />
		<!-- Defines a number of TourConstraint components that should be activated. Built-in choices: FromTripBased, VehicleContinuity, SubtourMode -->
		<param name="tourConstraints" value="SubtourMode" />
		<!-- Defines which TourEstimator component to use. Built-in choices: MATSimDayScoring, Cumulative, Uniform -->
		<param name="tourEstimator" value="MATSimDayScoring" />
		<!-- Defines which TourFinder component to use. Built-in choices: PlanBased, ActivityBased -->
		<param name="tourFinder" value="PlanBased" />
		<!-- Defines a number of TripConstraint components that should be activated. Built-in choices: VehicleContinuity, ShapeFile, LinkAttribute, TransitWalk -->
		<param name="tripConstraints" value="VehicleContinuity" />
		<!-- Defines which TripEstimator component to use. Built-in choices: MATSimTripScoring, Uniform -->
		<param name="tripEstimator" value="Uniform" />
		<parameterset type="modeAvailability:Car" >
			<!-- Defines which modes are avialable to the agents. -->
			<param name="availableModes" value="pt, car, walk, bike" />
		</parameterset>
		<parameterset type="modeAvailability:Default" >
			<!-- Defines which modes are avialable to the agents. -->
			<param name="availableModes" value="pt, car, walk, bike" />
		</parameterset>
		<parameterset type="selector:MultinomialLogit" >
			<!-- Defines whether candidates with a utility lower than the minimum utility should be filtered out. -->
			<param name="considerMinimumUtility" value="false" />
			<!-- Candidates with a utility above that threshold will be cut off to this value. -->
			<param name="maximumUtility" value="700.0" />
			<!-- Candidates with a utility lower than that threshold will not be considered by default. -->
			<param name="minimumUtility" value="-700.0" />
		</parameterset>
		<parameterset type="tourConstraint:SubtourMode" >
			<!-- Defines which modes are available more mode choice in general. Makes mainly sense in combination with keepUnavailableModes. -->
			<param name="availableModes" value="pt, car, walk, bike" />
			<!-- Modes for which the sub-tour behaviour should be replicated. If all available modes are put here, this equals to SubTourModeChoice with singleLegProbability == 0.0; if only the constrained modes are put here, it equals singleLegProbability > 0.0 -->
			<param name="constrainedModes" value="pt, car, walk, bike" />
			<param name="keepUnavailableModes" value="true" />
		</parameterset>
		<parameterset type="tourConstraint:VehicleContinuity" >
			<!-- If USE_ACTIVITY_TYPE is chosen for homeType, this option defines which activity type to look for. -->
			<param name="homeActivityType" value="home" />
			<!-- Defines how to determine where the home of an agent is: USE_FIRST_ACTIVITY, USE_ACTIVITY_TYPE -->
			<param name="homeType" value="USE_FIRST_ACTIVITY" />
			<!-- Defines which modes must fulfill continuity constraints (can only be used where they have been brough to before) -->
			<param name="restrictedModes" value="car, bike" />
		</parameterset>
		<parameterset type="tourFinder:ActivityBased" >
			<!-- Activity type which should be considered as start and end of a tour. If a plan does not start or end with such an activity additional tours are added. -->
			<param name="activityType" value="null" />
		</parameterset>
		<parameterset type="tripConstraint:LinkAttribute" >
			<!-- Link attribute that will be considered for feasibility of the trip. -->
			<param name="attributeName" value="null" />
			<!-- Value that the link attributes should equal. -->
			<param name="attributeValue" value="null" />
			<!-- Modes for which the constraint will be considered. -->
			<param name="constrainedModes" value="" />
			<!-- Defines the criterion on when a trip with the constrained mode will be allowed: ORIGIN, DESTINATION, BOTH, ANY, NONE -->
			<param name="requirement" value="BOTH" />
		</parameterset>
		<parameterset type="tripConstraint:ShapeFile" >
			<!-- Modes for which the shapes will be considered. -->
			<param name="constrainedModes" value="" />
			<!-- Path to a shape file, which should have the same projection as the network. -->
			<param name="path" value="null" />
			<!-- Defines the criterion on when a trip with the constrained mode will be allowed: ORIGIN, DESTINATION, BOTH, ANY, NONE -->
			<param name="requirement" value="BOTH" />
		</parameterset>
		<parameterset type="tripConstraint:VehicleContinuity" >
			<!-- If USE_ACTIVITY_TYPE is chosen for homeType, this option defines which activity type to look for. -->
			<param name="homeActivityType" value="home" />
			<!-- Defines how to determine where the home of an agent is: USE_FIRST_ACTIVITY, USE_ACTIVITY_TYPE -->
			<param name="homeType" value="USE_FIRST_ACTIVITY" />
			<!-- Defines if the advanced constriant is used (vehicles must be brought back home). -->
			<param name="isAdvanced" value="true" />
			<!-- Defines which modes must fulfill continuity constraints (can only be used where they have been brough to before) -->
			<param name="restrictedModes" value="car, bike" />
		</parameterset>
		<parameterset type="tripEstimator:MATSimTripScoring" >
			<!-- Modes which are considered as public transit, i.e. they involve waiting for a vehicle. -->
			<param name="ptLegModes" value="pt" />
		</parameterset>
	</module>
	<module name="JDEQSim" >
		<param name="carSize" value="7.5" />
		<param name="endTime" value="undefined" />
		<param name="flowCapacityFactor" value="1.0" />
		<param name="gapTravelSpeed" value="15.0" />
		<param name="minimumInFlowCapacity" value="1800.0" />
		<param name="squeezeTime" value="1800.0" />
		<param name="storageCapacityFactor" value="1.0" />
	</module>
	<module name="TimeAllocationMutator" >
		<!-- Default:true; Defines whether time mutation changes an activity's duration. -->
		<param name="mutationAffectsDuration" value="true" />
		<!-- Default:1800.0; Defines how many seconds a time mutation can maximally shift a time. -->
		<param name="mutationRange" value="1800.0" />
		<!-- false; Use individual settings for each subpopulation. If enabled but no settings are found, regular settings are uses as fallback. -->
		<param name="useIndividualSettingsForSubpopulations" value="false" />
	</module>
	<module name="changeMode" >
		<!-- Defines whether car availability is considered be considered or not. An agent has no car only if it has no license, or never access to a car. Default: true -->
		<param name="ignoreCarAvailability" value="true" />
		<!-- Defines the mode switch behavior. Possible values [fromAllModesToSpecifiedModes, fromSpecifiedModesToSpecifiedModes] Default: fromSpecifiedModesToSpecifiedModes. -->
		<param name="modeSwitchBehavior" value="fromSpecifiedModesToSpecifiedModes" />
		<!-- Defines all the modes available, including chain-based modes, seperated by commas -->
		<param name="modes" value="car,pt" />
	</module>
	<module name="controler" >
		<!-- Sets whether graphs showing some analyses should automatically be generated during the simulation. The generation of graphs usually takes a small amount of time that does not have any weight in big simulations, but add a significant overhead in smaller runs or in test cases where the graphical output is not even requested. -->
		<param name="createGraphs" value="true" />
		<!-- true if at the end of a run, plans, network, config etc should be dumped to a file -->
		<param name="dumpDataAtEnd" value="true" />
		<!-- Default=false. If enabled, the router takes travel times needed for turning moves into account. Cannot be used if the (Fast)AStarLandmarks routing or TravelTimeCalculator.separateModes is enabled. -->
		<param name="enableLinkToLinkRouting" value="false" />
		<!-- Default=xml; Specifies the file format for writing events. Currently supported: xml.
		Multiple values can be specified separated by commas (','). -->
		<param name="eventsFileFormat" value="xml" />
		<!-- Default=0;  -->
		<param name="firstIteration" value="0" />
		<!-- Default=1000;  -->
		<param name="lastIteration" value="10" />
		<!-- Defines which mobility simulation will be used. Currently supported: qsim JDEQSim 
		Depending on the chosen mobsim, you'll have to add additional config modules to configure the corresponding mobsim.
		For 'qsim', add a module 'qsim' to the config. -->
		<param name="mobsim" value="qsim" />
		<param name="outputDirectory" value="simulation_output" />
		<!-- Possible values: failIfDirectoryExists, overwriteExistingFiles, deleteDirectoryIfExists -->
		<param name="overwriteFiles" value="deleteDirectoryIfExists" />
		<!-- The type of routing (least cost path) algorithm used, may have the values: Dijkstra, FastDijkstra, AStarLandmarks or FastAStarLandmarks -->
		<param name="routingAlgorithmType" value="Dijkstra" />
		<!-- An identifier for the current run which is used as prefix for output files and mentioned in output xml files etc. -->
		<param name="runId" value="null" />
		<!-- Comma-separated list of visualizer output file formats. `transims', `googleearth', and `otfvis'. -->
		<param name="snapshotFormat" value="" />
		<!-- iterationNumber % writeEventsInterval == 0 defines in which iterations events are written to a file. `0' disables events writing completely. -->
		<param name="writeEventsInterval" value="10" />
		<!-- iterationNumber % writePlansInterval == 0 defines (hopefully) in which iterations plans are written to a file. `0' disables plans writing completely.  Some plans in early iterations are always written -->
		<param name="writePlansInterval" value="10" />
		<!-- iterationNumber % writeSnapshotsInterval == 0 defines in which iterations snapshots are written to a file. `0' disables snapshots writing completely -->
		<param name="writeSnapshotsInterval" value="1" />
	</module>
	<module name="counts" >
		<!-- Transport modes that will be respected for the counts comparison. 'car' is default, which includes also bussed from the pt simulation module. Use this parameter in combination with 'filterModes' = true! -->
		<param name="analyzedModes" value="car" />
		<!-- Specifies over how many iterations the link volumes should be averaged that are used for the counts comparison. Use 1 or 0 to only use the link volumes of a single iteration. This values cannot be larger than the value specified for writeCountsInterval -->
		<param name="averageCountsOverIterations" value="5" />
		<!-- factor by which to re-scale the simulated values.  necessary when simulation runs with something different from 100%.  needs to be adapted manually -->
		<param name="countsScaleFactor" value="1.0" />
		<!-- distance to distanceFilterCenterNode to include counting stations. The unit of distance is the Euclidean distance implied by the coordinate system -->
		<param name="distanceFilter" value="null" />
		<!-- node id for center node of distance filter -->
		<param name="distanceFilterCenterNode" value="null" />
		<!-- If true, link counts from legs performed on modes not included in the 'analyzedModes' parameter are ignored. -->
		<param name="filterModes" value="false" />
		<!-- The Coordinates Reference System in which the coordinates are expressed in the input file. At import, the coordinates will be converted to the coordinate system defined in "global", and willbe converted back at export. If not specified, no conversion happens. -->
		<param name="inputCRS" value="null" />
		<!-- input file name to counts package -->
		<param name="inputCountsFile" value="null" />
		<!-- possible values: `html', `kml', `txt', `all' -->
		<param name="outputformat" value="txt" />
		<!-- Specifies how often the counts comparison should be calculated and written. -->
		<param name="writeCountsInterval" value="10" />
	</module>
	<module name="facilities" >
		<!-- This defines how facilities should be created. Possible values: none fromFile setInScenario onePerActivityLinkInPlansFile onePerActivityLocationInPlansFile  -->
		<param name="facilitiesSource" value="none" />
		<!-- A prefix to be used for auto-generated IDs. -->
		<param name="idPrefix" value="autogen_" />
		<!-- The Coordinates Reference System in which the coordinates are expressed in the input file. At import, the coordinates will be converted to the coordinate system defined in "global", and willbe converted back at export. If not specified, no conversion happens. -->
		<param name="inputCRS" value="null" />
		<param name="inputFacilitiesFile" value="zurich_facilities.xml.gz" />
		<param name="inputFacilityAttributesFile" value="null" />
	</module>
	<module name="global" >
		<param name="coordinateSystem" value="Atlantis" />
		<param name="insistingOnDeprecatedConfigVersion" value="true" />
		<!-- "global" number of threads.  This number is used, e.g., for replanning, but NOT in the mobsim.  This can typically be set to as many cores as you have available, or possibly even slightly more. -->
		<param name="numberOfThreads" value="8" />
		<param name="randomSeed" value="4711" />
	</module>
	<module name="households" >
		<param name="inputFile" value="zurich_households.xml.gz" />
		<param name="inputHouseholdAttributesFile" value="zurich_household_attributes.xml.gz" />
	</module>
	<module name="linkStats" >
		<!-- Specifies over how many iterations the link volumes should be averaged that are used for the link statistics. Use 1 or 0 to only use the link volumes of a single iteration. This values cannot be larger than the value specified for writeLinkStatsInterval -->
		<param name="averageLinkStatsOverIterations" value="5" />
		<!-- Specifies how often the link stats should be calculated and written. Use 0 to disable the generation of link stats. -->
		<param name="writeLinkStatsInterval" value="-1" />
	</module>
	<module name="network" >
		<!-- The Coordinates Reference System in which the coordinates are expressed in the input file. At import, the coordinates will be converted to the coordinate system defined in "global", and willbe converted back at export. If not specified, no conversion happens. -->
		<param name="inputCRS" value="null" />
		<param name="inputChangeEventsFile" value="null" />
		<param name="inputNetworkFile" value="zurich_network.xml.gz" />
		<param name="laneDefinitionsFile" value="null" />
		<param name="timeVariantNetwork" value="false" />
	</module>
	<module name="parallelEventHandling" >
		<!-- Estimated number of events during mobsim run. An optional optimization hint for the framework. -->
		<param name="estimatedNumberOfEvents" value="null" />
		<!-- Number of threads for parallel events handler. _null_ means the framework decides by itself. 0 is currently not possible. -->
		<param name="numberOfThreads" value="null" />
		<!-- If enabled, each event handler is assigned to its own thread. Note that enabling this feature disabled the numberOfThreads option! This feature is still experimental! -->
		<param name="oneThreadPerHandler" value="false" />
		<!-- If enabled, it is ensured that all events that are created during a time step of the mobility simulation are processed before the next time step is simulated. E.g. neccessary when within-day replanning is used. -->
		<param name="synchronizeOnSimSteps" value="true" />
	</module>
	<module name="planCalcScore" >
		<!-- logit model scale parameter. default: 1.  Has name and default value for historical reasons (see Bryan Raney's phd thesis). -->
		<param name="BrainExpBeta" value="1.0" />
		<param name="PathSizeLogitBeta" value="1.0" />
		<!-- fraction of iterations at which MSA score averaging is started. The matsim theory department suggests to use this together with switching off choice set innovation (where a similar switch exists), but it has not been tested yet. -->
		<param name="fractionOfIterationsToStartScoreMSA" value="null" />
		<!-- new_score = (1-learningRate)*old_score + learningRate * score_from_mobsim.  learning rates close to zero emulate score averaging, but slow down initial convergence -->
		<param name="learningRate" value="1.0" />
		<!-- There used to be a plateau between duration=0 and duration=zeroUtilityDuration. This caused durations to evolve to zero once they were below zeroUtilityDuration, causing problems.  Only use this switch if you need to be backwards compatible with some old results.  (changed nov'13) -->
		<param name="usingOldScoringBelowZeroUtilityDuration" value="false" />
		<!-- write a plans file in each iteration directory which contains what each agent actually did, and the score it received. -->
		<param name="writeExperiencedPlans" value="false" />
		<parameterset type="scoringParameters" >
			<param name="earlyDeparture" value="-0.0" />
			<param name="lateArrival" value="-18.0" />
			<param name="marginalUtilityOfMoney" value="1.0" />
			<param name="performing" value="6.0" />
			<param name="subpopulation" value="null" />
			<param name="utilityOfLineSwitch" value="-1.0" />
			<param name="waiting" value="-0.0" />
			<param name="waitingPt" value="-6.0" />
			<parameterset type="activityParams" >
				<param name="activityType" value="dummy" />
				<param name="closingTime" value="undefined" />
				<param name="earliestEndTime" value="undefined" />
				<param name="latestStartTime" value="undefined" />
				<param name="minimalDuration" value="undefined" />
				<param name="openingTime" value="undefined" />
				<param name="priority" value="1.0" />
				<param name="scoringThisActivityAtAll" value="true" />
				<!-- typical duration of activity.  needs to be defined and non-zero.  in sec. -->
				<param name="typicalDuration" value="02:00:00" />
				<!-- method to compute score at typical duration.  Options: | uniform | relative | Use uniform for backwards compatibility (all activities same score; higher proba to drop long acts). -->
				<param name="typicalDurationScoreComputation" value="relative" />
			</parameterset>
			<parameterset type="activityParams" >
				<param name="activityType" value="car interaction" />
				<param name="closingTime" value="undefined" />
				<param name="earliestEndTime" value="undefined" />
				<param name="latestStartTime" value="undefined" />
				<param name="minimalDuration" value="undefined" />
				<param name="openingTime" value="undefined" />
				<param name="priority" value="1.0" />
				<param name="scoringThisActivityAtAll" value="false" />
				<param name="typicalDuration" value="undefined" />
				<param name="typicalDurationScoreComputation" value="relative" />
			</parameterset>
			<parameterset type="activityParams" >
				<param name="activityType" value="pt interaction" />
				<param name="closingTime" value="undefined" />
				<param name="earliestEndTime" value="undefined" />
				<param name="latestStartTime" value="undefined" />
				<param name="minimalDuration" value="undefined" />
				<param name="openingTime" value="undefined" />
				<param name="priority" value="1.0" />
				<param name="scoringThisActivityAtAll" value="false" />
				<param name="typicalDuration" value="undefined" />
				<param name="typicalDurationScoreComputation" value="relative" />
			</parameterset>
			<parameterset type="activityParams" >
				<param name="activityType" value="bike interaction" />
				<param name="closingTime" value="undefined" />
				<param name="earliestEndTime" value="undefined" />
				<param name="latestStartTime" value="undefined" />
				<param name="minimalDuration" value="undefined" />
				<param name="openingTime" value="undefined" />
				<param name="priority" value="1.0" />
				<param name="scoringThisActivityAtAll" value="false" />
				<param name="typicalDuration" value="undefined" />
				<param name="typicalDurationScoreComputation" value="relative" />
			</parameterset>
			<parameterset type="activityParams" >
				<param name="activityType" value="other interaction" />
				<param name="closingTime" value="undefined" />
				<param name="earliestEndTime" value="undefined" />
				<param name="latestStartTime" value="undefined" />
				<param name="minimalDuration" value="undefined" />
				<param name="openingTime" value="undefined" />
				<param name="priority" value="1.0" />
				<param name="scoringThisActivityAtAll" value="false" />
				<param name="typicalDuration" value="undefined" />
				<param name="typicalDurationScoreComputation" value="relative" />
			</parameterset>
			<parameterset type="activityParams" >
				<param name="activityType" value="walk interaction" />
				<param name="closingTime" value="undefined" />
				<param name="earliestEndTime" value="undefined" />
				<param name="latestStartTime" value="undefined" />
				<param name="minimalDuration" value="undefined" />
				<param name="openingTime" value="undefined" />
				<param name="priority" value="1.0" />
				<param name="scoringThisActivityAtAll" value="false" />
				<param name="typicalDuration" value="undefined" />
				<param name="typicalDurationScoreComputation" value="relative" />
			</parameterset>
			<parameterset type="activityParams" >
				<param name="activityType" value="work_1" />
				<param name="closingTime" value="undefined" />
				<param name="earliestEndTime" value="undefined" />
				<param name="latestStartTime" value="undefined" />
				<param name="minimalDuration" value="undefined" />
				<param name="openingTime" value="undefined" />
				<param name="priority" value="1.0" />
				<param name="scoringThisActivityAtAll" value="false" />
				<param name="typicalDuration" value="undefined" />
				<param name="typicalDurationScoreComputation" value="relative" />
			</parameterset>
			<parameterset type="activityParams" >
				<param name="activityType" value="home" />
				<param name="closingTime" value="undefined" />
				<param name="earliestEndTime" value="undefined" />
				<param name="latestStartTime" value="undefined" />
				<param name="minimalDuration" value="undefined" />
				<param name="openingTime" value="undefined" />
				<param name="priority" value="1.0" />
				<param name="scoringThisActivityAtAll" value="true" />
				<param name="typicalDuration" value="12:00:00" />
				<param name="typicalDurationScoreComputation" value="uniform" />
			</parameterset>
			<parameterset type="activityParams" >
				<param name="activityType" value="work" />
				<param name="closingTime" value="23:00:00" />
				<param name="earliestEndTime" value="undefined" />
				<param name="latestStartTime" value="undefined" />
				<param name="minimalDuration" value="undefined" />
				<param name="openingTime" value="03:00:00" />
				<param name="priority" value="1.0" />
				<param name="scoringThisActivityAtAll" value="true" />
				<param name="typicalDuration" value="08:00:00" />
				<param name="typicalDurationScoreComputation" value="uniform" />
			</parameterset>
			<parameterset type="activityParams" >
				<param name="activityType" value="service" />
				<param name="closingTime" value="21:00:00" />
				<param name="earliestEndTime" value="undefined" />
				<param name="latestStartTime" value="undefined" />
				<param name="minimalDuration" value="undefined" />
				<param name="openingTime" value="09:00:00" />
				<param name="priority" value="1.0" />
				<param name="scoringThisActivityAtAll" value="true" />
				<param name="typicalDuration" value="01:00:00" />
				<param name="typicalDurationScoreComputation" value="uniform" />
			</parameterset>
			<parameterset type="activityParams" >
				<param name="activityType" value="educ_higher" />
				<param name="closingTime" value="22:00:00" />
				<param name="earliestEndTime" value="undefined" />
				<param name="latestStartTime" value="undefined" />
				<param name="minimalDuration" value="undefined" />
				<param name="openingTime" value="08:00:00" />
				<param name="priority" value="1.0" />
				<param name="scoringThisActivityAtAll" value="true" />
				<param name="typicalDuration" value="06:00:00" />
				<param name="typicalDurationScoreComputation" value="uniform" />
			</parameterset>
			<parameterset type="activityParams" >
				<param name="activityType" value="educ_primary" />
				<param name="closingTime" value="17:00:00" />
				<param name="earliestEndTime" value="undefined" />
				<param name="latestStartTime" value="undefined" />
				<param name="minimalDuration" value="undefined" />
				<param name="openingTime" value="08:00:00" />
				<param name="priority" value="1.0" />
				<param name="scoringThisActivityAtAll" value="true" />
				<param name="typicalDuration" value="06:00:00" />
				<param name="typicalDurationScoreComputation" value="uniform" />
			</parameterset>
			<parameterset type="activityParams" >
				<param name="activityType" value="educ_secondary" />
				<param name="closingTime" value="17:00:00" />
				<param name="earliestEndTime" value="undefined" />
				<param name="latestStartTime" value="undefined" />
				<param name="minimalDuration" value="undefined" />
				<param name="openingTime" value="08:00:00" />
				<param name="priority" value="1.0" />
				<param name="scoringThisActivityAtAll" value="true" />
				<param name="typicalDuration" value="06:00:00" />
				<param name="typicalDurationScoreComputation" value="uniform" />
			</parameterset>
			<parameterset type="activityParams" >
				<param name="activityType" value="educ_tertiary" />
				<param name="closingTime" value="18:00:00" />
				<param name="earliestEndTime" value="undefined" />
				<param name="latestStartTime" value="undefined" />
				<param name="minimalDuration" value="undefined" />
				<param name="openingTime" value="08:00:00" />
				<param name="priority" value="1.0" />
				<param name="scoringThisActivityAtAll" value="true" />
				<param name="typicalDuration" value="06:00:00" />
				<param name="typicalDurationScoreComputation" value="uniform" />
			</parameterset>
			<parameterset type="activityParams" >
				<param name="activityType" value="educ_other" />
				<param name="closingTime" value="22:00:00" />
				<param name="earliestEndTime" value="undefined" />
				<param name="latestStartTime" value="undefined" />
				<param name="minimalDuration" value="undefined" />
				<param name="openingTime" value="08:00:00" />
				<param name="priority" value="1.0" />
				<param name="scoringThisActivityAtAll" value="true" />
				<param name="typicalDuration" value="04:00:00" />
				<param name="typicalDurationScoreComputation" value="uniform" />
			</parameterset>
			<parameterset type="activityParams" >
				<param name="activityType" value="educ_kiga" />
				<param name="closingTime" value="17:00:00" />
				<param name="earliestEndTime" value="undefined" />
				<param name="latestStartTime" value="undefined" />
				<param name="minimalDuration" value="undefined" />
				<param name="openingTime" value="07:00:00" />
				<param name="priority" value="1.0" />
				<param name="scoringThisActivityAtAll" value="true" />
				<param name="typicalDuration" value="07:00:00" />
				<param name="typicalDurationScoreComputation" value="uniform" />
			</parameterset>
			<parameterset type="activityParams" >
				<param name="activityType" value="shop_daily" />
				<param name="closingTime" value="21:00:00" />
				<param name="earliestEndTime" value="undefined" />
				<param name="latestStartTime" value="undefined" />
				<param name="minimalDuration" value="undefined" />
				<param name="openingTime" value="07:00:00" />
				<param name="priority" value="1.0" />
				<param name="scoringThisActivityAtAll" value="true" />
				<param name="typicalDuration" value="00:30:00" />
				<param name="typicalDurationScoreComputation" value="uniform" />
			</parameterset>
			<parameterset type="activityParams" >
				<param name="activityType" value="shop_other" />
				<param name="closingTime" value="21:00:00" />
				<param name="earliestEndTime" value="undefined" />
				<param name="latestStartTime" value="undefined" />
				<param name="minimalDuration" value="undefined" />
				<param name="openingTime" value="09:00:00" />
				<param name="priority" value="1.0" />
				<param name="scoringThisActivityAtAll" value="true" />
				<param name="typicalDuration" value="02:00:00" />
				<param name="typicalDurationScoreComputation" value="uniform" />
			</parameterset>
			<parameterset type="activityParams" >
				<param name="activityType" value="leisure" />
				<param name="closingTime" value="24:00:00" />
				<param name="earliestEndTime" value="undefined" />
				<param name="latestStartTime" value="undefined" />
				<param name="minimalDuration" value="undefined" />
				<param name="openingTime" value="06:00:00" />
				<param name="priority" value="1.0" />
				<param name="scoringThisActivityAtAll" value="true" />
				<param name="typicalDuration" value="04:00:00" />
				<param name="typicalDurationScoreComputation" value="uniform" />
			</parameterset>
			<parameterset type="activityParams" >
				<param name="activityType" value="business" />
				<param name="closingTime" value="22:00:00" />
				<param name="earliestEndTime" value="undefined" />
				<param name="latestStartTime" value="undefined" />
				<param name="minimalDuration" value="undefined" />
				<param name="openingTime" value="08:00:00" />
				<param name="priority" value="1.0" />
				<param name="scoringThisActivityAtAll" value="true" />
				<param name="typicalDuration" value="02:00:00" />
				<param name="typicalDurationScoreComputation" value="uniform" />
			</parameterset>
			<parameterset type="activityParams" >
				<param name="activityType" value="accomp_children" />
				<param name="closingTime" value="18:00:00" />
				<param name="earliestEndTime" value="undefined" />
				<param name="latestStartTime" value="undefined" />
				<param name="minimalDuration" value="undefined" />
				<param name="openingTime" value="06:00:00" />
				<param name="priority" value="1.0" />
				<param name="scoringThisActivityAtAll" value="true" />
				<param name="typicalDuration" value="00:30:00" />
				<param name="typicalDurationScoreComputation" value="uniform" />
			</parameterset>
			<parameterset type="activityParams" >
				<param name="activityType" value="accomp_other" />
				<param name="closingTime" value="24:00:00" />
				<param name="earliestEndTime" value="undefined" />
				<param name="latestStartTime" value="undefined" />
				<param name="minimalDuration" value="undefined" />
				<param name="openingTime" value="05:00:00" />
				<param name="priority" value="1.0" />
				<param name="scoringThisActivityAtAll" value="true" />
				<param name="typicalDuration" value="04:00:00" />
				<param name="typicalDurationScoreComputation" value="uniform" />
			</parameterset>
			<parameterset type="activityParams" >
				<param name="activityType" value="errands" />
				<param name="closingTime" value="17:00:00" />
				<param name="earliestEndTime" value="undefined" />
				<param name="latestStartTime" value="undefined" />
				<param name="minimalDuration" value="undefined" />
				<param name="openingTime" value="09:30:00" />
				<param name="priority" value="1.0" />
				<param name="scoringThisActivityAtAll" value="true" />
				<param name="typicalDuration" value="00:30:00" />
				<param name="typicalDurationScoreComputation" value="uniform" />
			</parameterset>
			<parameterset type="activityParams" >
				<param name="activityType" value="cbHome" />
				<param name="closingTime" value="undefined" />
				<param name="earliestEndTime" value="undefined" />
				<param name="latestStartTime" value="undefined" />
				<param name="minimalDuration" value="undefined" />
				<param name="openingTime" value="undefined" />
				<param name="priority" value="1.0" />
				<param name="scoringThisActivityAtAll" value="true" />
				<param name="typicalDuration" value="12:00:00" />
				<param name="typicalDurationScoreComputation" value="uniform" />
			</parameterset>
			<parameterset type="activityParams" >
				<param name="activityType" value="cbWork" />
				<param name="closingTime" value="21:00:00" />
				<param name="earliestEndTime" value="undefined" />
				<param name="latestStartTime" value="undefined" />
				<param name="minimalDuration" value="undefined" />
				<param name="openingTime" value="07:00:00" />
				<param name="priority" value="1.0" />
				<param name="scoringThisActivityAtAll" value="true" />
				<param name="typicalDuration" value="08:00:00" />
				<param name="typicalDurationScoreComputation" value="uniform" />
			</parameterset>
			<parameterset type="activityParams" >
				<param name="activityType" value="cbLeisure" />
				<param name="closingTime" value="24:00:00" />
				<param name="earliestEndTime" value="undefined" />
				<param name="latestStartTime" value="undefined" />
				<param name="minimalDuration" value="undefined" />
				<param name="openingTime" value="06:00:00" />
				<param name="priority" value="1.0" />
				<param name="scoringThisActivityAtAll" value="true" />
				<param name="typicalDuration" value="04:00:00" />
				<param name="typicalDurationScoreComputation" value="uniform" />
			</parameterset>
			<parameterset type="activityParams" >
				<param name="activityType" value="cbShop" />
				<param name="closingTime" value="21:00:00" />
				<param name="earliestEndTime" value="undefined" />
				<param name="latestStartTime" value="undefined" />
				<param name="minimalDuration" value="undefined" />
				<param name="openingTime" value="07:00:00" />
				<param name="priority" value="1.0" />
				<param name="scoringThisActivityAtAll" value="true" />
				<param name="typicalDuration" value="00:30:00" />
				<param name="typicalDurationScoreComputation" value="uniform" />
			</parameterset>
			<parameterset type="activityParams" >
				<param name="activityType" value="freight" />
				<param name="closingTime" value="undefined" />
				<param name="earliestEndTime" value="undefined" />
				<param name="latestStartTime" value="undefined" />
				<param name="minimalDuration" value="undefined" />
				<param name="openingTime" value="undefined" />
				<param name="priority" value="1.0" />
				<param name="scoringThisActivityAtAll" value="true" />
				<param name="typicalDuration" value="12:00:00" />
				<param name="typicalDurationScoreComputation" value="uniform" />
			</parameterset>
			<parameterset type="activityParams" >
				<param name="activityType" value="Exogenous" />
				<param name="closingTime" value="undefined" />
				<param name="earliestEndTime" value="undefined" />
				<param name="latestStartTime" value="undefined" />
				<param name="minimalDuration" value="00:10:00" />
				<param name="openingTime" value="undefined" />
				<param name="priority" value="1.0" />
				<param name="scoringThisActivityAtAll" value="false" />
				<param name="typicalDuration" value="00:40:00" />
				<param name="typicalDurationScoreComputation" value="uniform" />
			</parameterset>
			<parameterset type="modeParams" >
				<!-- [utils] alternative-specific constant.  Normally per trip, but that is probably buggy for multi-leg trips. -->
				<param name="constant" value="0.0" />
				<!-- [money] daily monetary constant. default=0 to be backwards compatible -->
				<param name="dailyMonetaryConstant" value="0.0" />
				<!-- [utils] daily utility constant. default=0 to be backwards compatible -->
				<param name="dailyUtilityConstant" value="0.0" />
				<!-- [utils/m] utility of traveling (e.g. walking or driving) per m, normally negative.  this is on top of the time (dis)utility. -->
				<param name="marginalUtilityOfDistance_util_m" value="0.0" />
				<!-- [utils/hr] additional marginal utility of traveling.  normally negative.  this comes on top of the opportunity cost of time -->
				<param name="marginalUtilityOfTraveling_util_hr" value="-6.0" />
				<param name="mode" value="car" />
				<!-- [unit_of_money/m] conversion of distance into money. Normally negative. -->
				<param name="monetaryDistanceRate" value="0.0" />
			</parameterset>
			<parameterset type="modeParams" >
				<param name="constant" value="0.0" />
				<param name="dailyMonetaryConstant" value="0.0" />
				<param name="dailyUtilityConstant" value="0.0" />
				<param name="marginalUtilityOfDistance_util_m" value="0.0" />
				<param name="marginalUtilityOfTraveling_util_hr" value="-6.0" />
				<param name="mode" value="pt" />
				<param name="monetaryDistanceRate" value="0.0" />
			</parameterset>
			<parameterset type="modeParams" >
				<param name="constant" value="0.0" />
				<param name="dailyMonetaryConstant" value="0.0" />
				<param name="dailyUtilityConstant" value="0.0" />
				<param name="marginalUtilityOfDistance_util_m" value="0.0" />
				<param name="marginalUtilityOfTraveling_util_hr" value="-6.0" />
				<param name="mode" value="walk" />
				<param name="monetaryDistanceRate" value="0.0" />
			</parameterset>
			<parameterset type="modeParams" >
				<param name="constant" value="0.0" />
				<param name="dailyMonetaryConstant" value="0.0" />
				<param name="dailyUtilityConstant" value="0.0" />
				<param name="marginalUtilityOfDistance_util_m" value="0.0" />
				<param name="marginalUtilityOfTraveling_util_hr" value="-6.0" />
				<param name="mode" value="bike" />
				<param name="monetaryDistanceRate" value="0.0" />
			</parameterset>
			<parameterset type="modeParams" >
				<param name="constant" value="0.0" />
				<param name="dailyMonetaryConstant" value="0.0" />
				<param name="dailyUtilityConstant" value="0.0" />
				<param name="marginalUtilityOfDistance_util_m" value="0.0" />
				<param name="marginalUtilityOfTraveling_util_hr" value="-6.0" />
				<param name="mode" value="ride" />
				<param name="monetaryDistanceRate" value="0.0" />
			</parameterset>
			<parameterset type="modeParams" >
				<param name="constant" value="0.0" />
				<param name="dailyMonetaryConstant" value="0.0" />
				<param name="dailyUtilityConstant" value="0.0" />
				<param name="marginalUtilityOfDistance_util_m" value="0.0" />
				<param name="marginalUtilityOfTraveling_util_hr" value="-6.0" />
				<param name="mode" value="other" />
				<param name="monetaryDistanceRate" value="0.0" />
			</parameterset>
			<parameterset type="modeParams" >
				<param name="constant" value="0.0" />
				<param name="dailyMonetaryConstant" value="0.0" />
				<param name="dailyUtilityConstant" value="0.0" />
				<param name="marginalUtilityOfDistance_util_m" value="0.0" />
				<param name="marginalUtilityOfTraveling_util_hr" value="0.0" />
				<param name="mode" value="outside" />
				<param name="monetaryDistanceRate" value="0.0" />
			</parameterset>
		</parameterset>
	</module>
	<module name="plans" >
		<!-- String: minOfDurationAndEndTime tryEndTimeThenDuration endTimeOnly. Anything besides minOfDurationAndEndTime will internally use a different (simpler) version of the TimeAllocationMutator. -->
		<param name="activityDurationInterpretation" value="tryEndTimeThenDuration" />
		<!-- The Coordinates Reference System in which the coordinates are expressed in the input file. At import, the coordinates will be converted to the coordinate system defined in "global", and willbe converted back at export. If not specified, no conversion happens. -->
		<param name="inputCRS" value="null" />
		<param name="inputPersonAttributesFile" value="zurich_population_attributes.xml.gz" />
		<param name="inputPlansFile" value="zurich_population.xml" />
		<!-- Defines how routes are stored in memory. Currently supported: LinkNetworkRoute, CompressedNetworkRoute. -->
		<param name="networkRouteType" value="LinkNetworkRoute" />
		<!-- (not tested) will remove plan attributes that are presumably not used, such as activityStartTime. default=false. Use with Caution! -->
		<param name="removingUnnecessaryPlanAttributes" value="false" />
		<!-- Name of the (Object)Attribute defining the subpopulation to which pertains a Person (as freight, through traffic, etc.). The attribute must be of String type.  Change away from default only in desperate situations. -->
		<param name="subpopulationAttributeName" value="subpopulation" />
	</module>
	<module name="planscalcroute" >
		<!-- All the modes for which the router is supposed to generate network routes (like car) -->
		<param name="networkModes" value="car" />
		<parameterset type="teleportedModeParameters" >
			<param name="beelineDistanceFactor" value="1.3" />
			<param name="mode" value="bike" />
			<!-- Free-speed factor for a teleported mode. Travel time = teleportedModeFreespeedFactor * <freespeed car travel time>. Insert a line like this for every such mode. Please do not set teleportedModeFreespeedFactor as well as teleportedModeSpeed for the same mode, but if you do, +teleportedModeFreespeedFactor wins over teleportedModeSpeed. -->
			<param name="teleportedModeFreespeedFactor" value="null" />
			<!-- Speed for a teleported mode. Travel time = (<beeline distance> * beelineDistanceFactor) / teleportedModeSpeed. Insert a line like this for every such mode. -->
			<param name="teleportedModeSpeed" value="4.166666666666667" />
		</parameterset>
		<parameterset type="teleportedModeParameters" >
			<param name="beelineDistanceFactor" value="1.3" />
			<param name="mode" value="walk" />
			<param name="teleportedModeFreespeedFactor" value="null" />
			<param name="teleportedModeSpeed" value="0.8333333333333333" />
		</parameterset>
		<parameterset type="teleportedModeParameters" >
			<param name="beelineDistanceFactor" value="1.3" />
			<param name="mode" value="access_walk" />
			<param name="teleportedModeFreespeedFactor" value="null" />
			<param name="teleportedModeSpeed" value="0.8333333333333333" />
		</parameterset>
		<parameterset type="teleportedModeParameters" >
			<param name="beelineDistanceFactor" value="1.3" />
			<param name="mode" value="egress_walk" />
			<param name="teleportedModeFreespeedFactor" value="null" />
			<param name="teleportedModeSpeed" value="0.8333333333333333" />
		</parameterset>
		<parameterset type="teleportedModeParameters" >
			<param name="beelineDistanceFactor" value="1.3" />
			<param name="mode" value="undefined" />
			<param name="teleportedModeFreespeedFactor" value="null" />
			<param name="teleportedModeSpeed" value="13.88888888888889" />
		</parameterset>
		<parameterset type="teleportedModeParameters" >
			<param name="beelineDistanceFactor" value="1.3" />
			<param name="mode" value="ride" />
			<param name="teleportedModeFreespeedFactor" value="1.0" />
			<param name="teleportedModeSpeed" value="null" />
		</parameterset>
		<parameterset type="teleportedModeParameters" >
			<param name="beelineDistanceFactor" value="1.3" />
			<param name="mode" value="pt" />
			<param name="teleportedModeFreespeedFactor" value="2.0" />
			<param name="teleportedModeSpeed" value="null" />
		</parameterset>
		<parameterset type="teleportedModeParameters" >
			<param name="beelineDistanceFactor" value="1.0" />
			<param name="mode" value="outside" />
			<param name="teleportedModeFreespeedFactor" value="null" />
			<param name="teleportedModeSpeed" value="1000000.0" />
		</parameterset>
	</module>
	<module name="ptCounts" >
		<!-- factor by which to re-scale the simulated values.  necessary when simulation runs with something different from 100%.  needs to be adapted manually -->
		<param name="countsScaleFactor" value="1.0" />
		<!-- distance to distanceFilterCenterNode to include counting stations. The unit of distance is the Euclidean distance implied by the coordinate system -->
		<param name="distanceFilter" value="null" />
		<!-- node id for center node of distance filter -->
		<param name="distanceFilterCenterNode" value="null" />
		<!-- input file containing the alighting (getting off) counts for pt -->
		<param name="inputAlightCountsFile" value="null" />
		<!-- input file containing the boarding (getting on) counts for pt -->
		<param name="inputBoardCountsFile" value="null" />
		<!-- input file containing the occupancy counts for pt -->
		<param name="inputOccupancyCountsFile" value="null" />
		<!-- possible values: `html', `kml', `txt', `all' -->
		<param name="outputformat" value="null" />
		<!-- every how many iterations (starting with 0) counts comparisons are generated -->
		<param name="ptCountsInterval" value="10" />
	</module>
	<module name="qsim" >
		<param name="endTime" value="30:00:00" />
		<param name="flowCapacityFactor" value="0.001" />
		<!-- decides if waiting vehicles enter the network after or before the already driving vehicles were moved. Default: false -->
		<param name="insertingWaitingVehiclesBeforeDrivingVehicles" value="false" />
		<!-- If link dynamics is set as SeepageQ, set to false if all seep modes should perform seepage. Default is true (better option). -->
		<param name="isRestrictingSeepage" value="true" />
		<!-- If link dynamics is set as SeepageQ, set to true if seep mode do not consumes any space on the link. Default is false. -->
		<param name="isSeepModeStorageFree" value="false" />
		<!-- default: FIFO; options: FIFO PassingQ SeepageQ -->
		<param name="linkDynamics" value="FIFO" />
		<!-- The (initial) width of the links of the network. Use positive floating point values. This is used only for visualisation. -->
		<param name="linkWidth" value="30.0" />
		<!-- [comma-separated list] Defines which modes are congested modes. Technically, these are the modes that the departure handler of the netsimengine handles.  Effective cell size, effective lane width, flow capacity factor, and storage capacity factor need to be set with diligence.  Need to be vehicular modes to make sense. -->
		<param name="mainMode" value="car" />
		<!-- Shortens a link in the visualization, i.e. its start and end point are moved into towards the center. Does not affect traffic flow.  -->
		<param name="nodeOffset" value="0.0" />
		<!-- Number of threads used for the QSim.  Note that this setting is independent from the "global" threads setting.  In contrast to earlier versions, the non-parallel special version is no longer there. -->
		<param name="numberOfThreads" value="8" />
		<!-- Boolean. `true': stuck vehicles are removed, aborting the plan; `false': stuck vehicles are forced into the next link. `false' is probably the better choice. -->
		<param name="removeStuckVehicles" value="false" />
		<!-- If link dynamics is set as SeepageQ, set a seep mode. Default is bike. -->
		<param name="seepMode" value="bike" />
		<!-- Possible values: minOfEndtimeAndMobsimFinished, onlyUseEndtime -->
		<param name="simEndtimeInterpretation" value="onlyUseEndtime" />
		<!-- Options: maxOfStarttimeAndEarliestActivityEnd onlyUseStarttime  -->
		<param name="simStarttimeInterpretation" value="maxOfStarttimeAndEarliestActivityEnd" />
		<!-- snapshotStyle. One of: equiDist queue withHoles withHolesAndShowHoles kinematicWaves  -->
		<param name="snapshotStyle" value="equiDist" />
		<param name="snapshotperiod" value="00:00:00" />
		<param name="startTime" value="undefined" />
		<param name="storageCapacityFactor" value="10000.0" />
		<!-- time in seconds.  Time after which the frontmost vehicle on a link is called `stuck' if it does not move. -->
		<param name="stuckTime" value="108000.0" />
		<param name="timeStepSize" value="00:00:01" />
		<!-- options: queue withHoles kinematicWaves  -->
		<param name="trafficDynamics" value="queue" />
		<!-- Set this parameter to true if lanes should be used, false if not. -->
		<param name="useLanes" value="false" />
		<!-- If a route does not reference a vehicle, agents will use the vehicle with the same id as their own. -->
		<param name="usePersonIdForMissingVehicleId" value="true" />
		<!-- If false, the qsim accumulates fractional flows up to one flow unit in every time step.  If true, flows are updated only if an agent wants to enter the link or an agent is added to buffer. Default is true. -->
		<param name="usingFastCapacityUpdate" value="true" />
		<!-- if the qsim should use as many runners as there are threads (Christoph's dissertation version) or more of them, together with a thread pool (seems to be faster in some situations, but is not tested). -->
		<param name="usingThreadpool" value="true" />
		<!-- Defines what happens if an agent wants to depart, but the specified vehicle is not available. One of: teleport wait exception  -->
		<param name="vehicleBehavior" value="teleport" />
		<!-- If vehicles should all be the same default vehicle, or come from the vehicles file, or something else.  Possible values:  defaultVehicle modeVehicleTypesFromVehiclesData fromVehiclesData -->
		<param name="vehiclesSource" value="defaultVehicle" />
	</module>
	<module name="strategy" >
		<!-- the external executable will be called with a config file as argument.  This is the pathname to a possible skeleton config, to which additional information will be added.  Can be null. -->
		<param name="ExternalExeConfigTemplate" value="null" />
		<!-- time out value (in seconds) after which matsim will consider the external strategy as failed -->
		<param name="ExternalExeTimeOut" value="3600" />
		<!-- root directory for temporary files generated by the external executable. Provided as a service; I don't think this is used by MATSim. -->
		<param name="ExternalExeTmpFileRootDir" value="null" />
		<!-- fraction of iterations where innovative strategies are switched off.  Something like 0.8 should be good.  E.g. if you run from iteration 400 to iteration 500, innovation is switched off at iteration 480 -->
		<param name="fractionOfIterationsToDisableInnovation" value="Infinity" />
		<!-- maximum number of plans per agent.  ``0'' means ``infinity''.  Currently (2010), ``5'' is a good number -->
		<param name="maxAgentPlanMemorySize" value="5" />
		<!-- strategyName of PlanSelector for plans removal.  Possible defaults: WorstPlanSelector SelectRandom SelectExpBetaForRemoval ChangeExpBetaForRemoval PathSizeLogitSelectorForRemoval . The current default, WorstPlanSelector is not a good choice from a discrete choice theoretical perspective. Alternatives, however, have not been systematically tested. kai, feb'12 -->
		<param name="planSelectorForRemoval" value="WorstPlanSelector" />
		<parameterset type="strategysettings" >
			<!-- iteration after which strategy will be disabled.  most useful for ``innovative'' strategies (new routes, new times, ...). Normally, better use fractionOfIterationsToDisableInnovation -->
			<param name="disableAfterIteration" value="-1" />
			<!-- path to external executable (if applicable) -->
			<param name="executionPath" value="null" />
			<!-- strategyName of strategy.  Possible default names: SelectRandomBestScoreKeepLastSelectedChangeExpBetaSelectExpBetaSelectPathSizeLogit (selectors), ReRouteTimeAllocationMutatorTimeAllocationMutator_ReRouteChangeSingleTripModeChangeTripModeSubtourModeChoice (innovative strategies). -->
			<param name="strategyName" value="ReRoute" />
			<!-- subpopulation to which the strategy applies. "null" refers to the default population, that is, the set of persons for which no explicit subpopulation is defined (ie no subpopulation attribute) -->
			<param name="subpopulation" value="null" />
			<!-- weight of a strategy: for each agent, a strategy will be selected with a probability proportional to its weight -->
			<param name="weight" value="0.0" />
		</parameterset>
		<parameterset type="strategysettings" >
			<param name="disableAfterIteration" value="-1" />
			<param name="executionPath" value="null" />
			<param name="strategyName" value="ChangeExpBeta" />
			<param name="subpopulation" value="null" />
			<param name="weight" value="0.0" />
		</parameterset>
		<parameterset type="strategysettings" >
			<param name="disableAfterIteration" value="-1" />
			<param name="executionPath" value="null" />
			<param name="strategyName" value="DiscreteModeChoice" />
			<param name="subpopulation" value="null" />
			<param name="weight" value="0.9" />
		</parameterset>
	</module>
	<module name="subtourModeChoice" >
		<!-- Only for backwards compatibility.  Defines if only trips from modes list should change mode, or all trips.  Options: fromAllModesToSpecifiedModes fromSpecifiedModesToSpecifiedModes  -->
		<param name="behavior" value="fromSpecifiedModesToSpecifiedModes" />
		<!-- Defines the chain-based modes, seperated by commas -->
		<param name="chainBasedModes" value="car,bike" />
		<!-- Defines whether car availability must be considered or not. A agent has no car only if it has no license, or never access to a car -->
		<param name="considerCarAvailability" value="false" />
		<!-- Defines all the modes available, including chain-based modes, seperated by commas -->
		<param name="modes" value="car,pt,bike,walk" />
	</module>
	<module name="transit" >
		<!-- The Coordinates Reference System in which the coordinates are expressed in the input file. At import, the coordinates will be converted to the coordinate system defined in "global", and willbe converted back at export. If not specified, no conversion happens. -->
		<param name="inputScheduleCRS" value="null" />
		<!-- Optional input file containing additional attributes for transit lines, stored as ObjectAttributes. -->
		<param name="transitLinesAttributesFile" value="null" />
		<!-- Comma-separated list of transportation modes that are handled as transit. Defaults to 'pt'. -->
		<param name="transitModes" value="pt" />
		<!-- Input file containing the transit schedule to be simulated. -->
		<param name="transitScheduleFile" value="zurich_transit_schedule.xml.gz" />
		<!-- Optional input file containing additional attributes for transit stop facilities, stored as ObjectAttributes. -->
		<param name="transitStopsAttributesFile" value="null" />
		<!-- Set this parameter to true if transit should be simulated, false if not. -->
		<param name="useTransit" value="true" />
		<!-- Input file containing the vehicles used by the departures in the transit schedule. -->
		<param name="vehiclesFile" value="zurich_transit_vehicles.xml.gz" />
	</module>
	<module name="transitRouter" >
		<!-- additional time the router allocates when a line switch happens. Can be interpreted as a 'safety' time that agents need to safely transfer from one line to another -->
		<param name="additionalTransferTime" value="0.0" />
		<!-- Factor with which direct walk generalized cost is multiplied before it is compared to the pt generalized cost.  Set to a very high value to reduce direct walk results. -->
		<param name="directWalkFactor" value="1.0" />
		<!-- step size to increase searchRadius if no stops are found -->
		<param name="extensionRadius" value="200.0" />
		<!-- maximum beeline distance between stops that agents could transfer to by walking -->
		<param name="maxBeelineWalkConnectionDistance" value="100.0" />
		<!-- the radius in which stop locations are searched, given a start or target coordinate -->
		<param name="searchRadius" value="1000.0" />
	</module>
	<module name="travelTimeCalculator" >
		<!-- (only for backwards compatibility; only used if separateModes==false && + filterModes==true)  Transport modes that will be respected by the travel time collector. 'car' is default which includes also buses from the pt simulation module. -->
		<param name="analyzedModes" value="car" />
		<param name="calculateLinkToLinkTravelTimes" value="false" />
		<param name="calculateLinkTravelTimes" value="true" />
		<!-- (only for backwards compatiblity; only used if separateModes==false)  Only modes included in analyzedModes are included. -->
		<param name="filterModes" value="false" />
		<!-- The lenght (in sec) of the time period that is splited into time bins; an additional time bin is created to aggregate all travel times collected after maxTime -->
		<param name="maxTime" value="108000" />
		<!-- (only for backwards compatibility) If false, link travel times are measured and aggregated over all vehicles using the link. -->
		<param name="separateModes" value="false" />
		<!-- How to deal with congested time bins that have no link entry events. `optimistic' assumes free speed (too optimistic); 'experimental_LastMile' is experimental and probably too pessimistic. -->
		<param name="travelTimeAggregator" value="optimistic" />
		<!-- The size of the time bin (in sec) into which the link travel times are aggregated for the router -->
		<param name="travelTimeBinSize" value="900" />
		<!-- possible values: TravelTimeCalculatorArray TravelTimeCalculatorHashMap  -->
		<param name="travelTimeCalculator" value="TravelTimeCalculatorArray" />
		<!-- How to deal with link entry times at different positions during the time bin. Currently supported: average, linearinterpolation -->
		<param name="travelTimeGetter" value="average" />
	</module>
	<module name="vehicles" >
		<param name="vehiclesFile" value="null" />
	</module>
	<module name="vspExperimental" >
		<!-- (do not use except of you have to) There was a problem with pt interaction scoring.  Some people solved it by overwriting the parameters of the pt interaction activity type.  Doing this now throws an Exception.  If you still insist on doing this, set the following to true. -->
		<param name="isAbleToOverwritePtInteractionParams" value="false" />
		<param name="isGeneratingBoardingDeniedEvent" value="false" />
		<!-- if an approximation of the opportunity cost of time is included into the radius calculation for location choice.`true' will be faster, but it is an approximation.  Default is `true'; `false' is available for backwards compatibility. -->
		<param name="isUsingOpportunityCostOfTimeForLocationChoice" value="true" />
		<param name="logitScaleParamForPlansRemoval" value="1.0" />
		<!-- Options: | ignore | info | warn | abort | .  When violating VSP defaults, this results in nothing, logfile infos, logfile warnings, or aborts.  Members of VSP should use `abort' or talk to kai. -->
		<param name="vspDefaultsCheckingLevel" value="ignore" />
		<!-- if true then writes output_events in output directory.  default is `false'. Will only work when lastIteration is multiple of events writing interval -->
		<param name="writingOutputEvents" value="true" />
	</module>

</config>

2019-07-02 12:52:37,176  INFO ControlerUtils:63 Complete config dump done.
2019-07-02 12:52:37,176  INFO ControlerUtils:64 Checking consistency of config...
2019-07-02 12:52:37,176  INFO VspConfigConsistencyCheckerImpl:58 NOT running vsp config consistency check because vsp defaults checking level is set to IGNORE
2019-07-02 12:52:37,176  INFO ControlerUtils:66 Checking consistency of config done.
2019-07-02 12:52:37,176  INFO PrepareForSimImpl:79 Network seems to be multimodal. Create car-only network which is handed over to PersonPrepareForSim.
2019-07-02 12:52:37,177  INFO NetworkImpl:167  node # 1
2019-07-02 12:52:37,177  INFO NetworkImpl:167  node # 4
2019-07-02 12:52:37,177  INFO NetworkImpl:167  node # 16
2019-07-02 12:52:37,177  INFO NetworkImpl:167  node # 64
2019-07-02 12:52:37,177  INFO NetworkImpl:167  node # 256
2019-07-02 12:52:37,177  INFO NetworkImpl:167  node # 1024
2019-07-02 12:52:37,178  INFO NetworkImpl:167  node # 4096
2019-07-02 12:52:37,180  INFO NetworkImpl:167  node # 16384
2019-07-02 12:52:37,197  INFO NetworkImpl:167  node # 65536
2019-07-02 12:52:37,200  INFO NetworkImpl:163  link # 1
2019-07-02 12:52:37,200  INFO NetworkImpl:163  link # 4
2019-07-02 12:52:37,201  INFO NetworkImpl:163  link # 16
2019-07-02 12:52:37,201  INFO NetworkImpl:163  link # 64
2019-07-02 12:52:37,201  INFO NetworkImpl:163  link # 256
2019-07-02 12:52:37,203  INFO NetworkImpl:163  link # 1024
2019-07-02 12:52:37,210  INFO NetworkImpl:163  link # 4096
2019-07-02 12:52:37,235  INFO NetworkImpl:163  link # 16384
2019-07-02 12:52:37,310  INFO NetworkImpl:163  link # 65536
2019-07-02 12:52:37,485 DEBUG NetworkRoutingProvider:75 requesting network routing module with routingMode=car;	mode=car
2019-07-02 12:52:37,512 DEBUG NetworkRoutingProvider:75 requesting network routing module with routingMode=car;	mode=car
2019-07-02 12:52:37,532 DEBUG NetworkRoutingProvider:75 requesting network routing module with routingMode=car;	mode=car
2019-07-02 12:52:37,551 DEBUG NetworkRoutingProvider:75 requesting network routing module with routingMode=car;	mode=car
2019-07-02 12:52:37,570 DEBUG NetworkRoutingProvider:75 requesting network routing module with routingMode=car;	mode=car
2019-07-02 12:52:37,589 DEBUG NetworkRoutingProvider:75 requesting network routing module with routingMode=car;	mode=car
2019-07-02 12:52:37,610 DEBUG NetworkRoutingProvider:75 requesting network routing module with routingMode=car;	mode=car
2019-07-02 12:52:37,630 DEBUG NetworkRoutingProvider:75 requesting network routing module with routingMode=car;	mode=car
2019-07-02 12:52:37,649  INFO Counter:70 [PersonPrepareForSim] handled person # 1
2019-07-02 12:52:37,649  INFO Counter:70 [PersonPrepareForSim] handled person # 16
2019-07-02 12:52:37,649  INFO Counter:70 [PersonPrepareForSim] handled person # 8
2019-07-02 12:52:37,649  INFO Counter:70 [PersonPrepareForSim] handled person # 2
2019-07-02 12:52:37,649  INFO Counter:70 [PersonPrepareForSim] handled person # 4
2019-07-02 12:52:37,650  INFO Counter:70 [PersonPrepareForSim] handled person # 128
2019-07-02 12:52:37,650  INFO Counter:70 [PersonPrepareForSim] handled person # 256
2019-07-02 12:52:37,650  INFO Counter:70 [PersonPrepareForSim] handled person # 64
2019-07-02 12:52:37,650  INFO Counter:70 [PersonPrepareForSim] handled person # 512
2019-07-02 12:52:37,651  INFO Counter:70 [PersonPrepareForSim] handled person # 1024
2019-07-02 12:52:37,650  INFO Counter:70 [PersonPrepareForSim] handled person # 32
2019-07-02 12:52:37,653  INFO Counter:76 [PersonPrepareForSim] handled person # 1566
2019-07-02 12:52:37,653  INFO Counter:70 [VehiclesImpl] added vehicle # 1
2019-07-02 12:52:37,653  INFO Counter:70 [VehiclesImpl] added vehicle # 2
2019-07-02 12:52:37,653  INFO Counter:70 [VehiclesImpl] added vehicle # 4
2019-07-02 12:52:37,654  INFO Counter:70 [VehiclesImpl] added vehicle # 8
2019-07-02 12:52:37,654  INFO Counter:70 [VehiclesImpl] added vehicle # 16
2019-07-02 12:52:37,654  INFO Counter:70 [VehiclesImpl] added vehicle # 32
2019-07-02 12:52:37,654  INFO Counter:70 [VehiclesImpl] added vehicle # 64
2019-07-02 12:52:37,654  INFO Counter:70 [VehiclesImpl] added vehicle # 128
2019-07-02 12:52:37,654  INFO Counter:70 [VehiclesImpl] added vehicle # 256
2019-07-02 12:52:37,654  INFO Counter:70 [VehiclesImpl] added vehicle # 512
2019-07-02 12:52:37,655  INFO Counter:70 [VehiclesImpl] added vehicle # 1024
2019-07-02 12:52:37,678  INFO AbstractController:123 ###################################################
2019-07-02 12:52:37,678  INFO AbstractController:124 ### ITERATION 0 BEGINS
2019-07-02 12:52:37,679  INFO ControlerListenerManagerImpl:145 calling notifyIterationStarts on org.matsim.analysis.LegHistogramListener
2019-07-02 12:52:37,679  INFO ControlerListenerManagerImpl:145 calling notifyIterationStarts on org.matsim.core.replanning.ReplanningContextImpl
2019-07-02 12:52:37,679  INFO ControlerListenerManagerImpl:145 calling notifyIterationStarts on org.matsim.core.scoring.ExperiencedPlansServiceImpl$1
2019-07-02 12:52:37,680  INFO ControlerListenerManagerImpl:145 calling notifyIterationStarts on org.matsim.core.scoring.ScoringFunctionsForPopulation$1
2019-07-02 12:52:37,691  INFO ControlerListenerManagerImpl:148 [it.0] all ControlerIterationStartsListeners called.
2019-07-02 12:52:37,691  INFO ControlerListenerManagerImpl:224 calling notifyBeforeMobsim on org.matsim.core.controler.corelisteners.EventsHandlingImpl
2019-07-02 12:52:37,691  INFO EventsManagerImpl:170 resetting Event-Handlers
2019-07-02 12:52:37,692  INFO EventsManagerImpl:177   org.matsim.core.trafficmonitoring.TravelTimeCalculator
2019-07-02 12:52:37,692  INFO EventsManagerImpl:177   org.matsim.core.scoring.EventsToLegsAndActivities
2019-07-02 12:52:37,692  INFO EventsManagerImpl:177   org.matsim.analysis.VolumesAnalyzer
2019-07-02 12:52:37,692  INFO EventsManagerImpl:177   org.matsim.core.events.algorithms.Vehicle2DriverEventHandler
2019-07-02 12:52:37,692  INFO EventsManagerImpl:177   org.matsim.core.scoring.ScoringFunctionsForPopulation
2019-07-02 12:52:37,692  INFO EventsManagerImpl:177   org.matsim.pt.router.TransitRouterImplFactory$$Lambda$18/461591680
2019-07-02 12:52:37,692  INFO EventsManagerImpl:177   org.matsim.analysis.LegHistogram
2019-07-02 12:52:37,692  INFO EventsManagerImpl:177   org.matsim.analysis.CalcLegTimes
2019-07-02 12:52:37,693  INFO EventsManagerImpl:144 adding Event-Handler: org.matsim.core.events.algorithms.EventWriterXML
2019-07-02 12:52:37,693  INFO EventsManagerImpl:148   org.matsim.core.events.algorithms.EventWriter
2019-07-02 12:52:37,694  INFO EventsManagerImpl:148   org.matsim.core.events.handler.BasicEventHandler
2019-07-02 12:52:37,694  INFO EventsManagerImpl:207     > org.matsim.api.core.v01.events.Event
2019-07-02 12:52:37,694  INFO EventsManagerImpl:156 
2019-07-02 12:52:37,694  INFO EventsManagerImpl:144 adding Event-Handler: org.matsim.core.events.algorithms.EventWriterXML
2019-07-02 12:52:37,694  INFO EventsManagerImpl:148   org.matsim.core.events.algorithms.EventWriter
2019-07-02 12:52:37,694  INFO EventsManagerImpl:148   org.matsim.core.events.handler.BasicEventHandler
2019-07-02 12:52:37,694  INFO EventsManagerImpl:207     > org.matsim.api.core.v01.events.Event
2019-07-02 12:52:37,694  INFO EventsManagerImpl:156 
2019-07-02 12:52:37,694  INFO ControlerListenerManagerImpl:224 calling notifyBeforeMobsim on org.matsim.core.controler.corelisteners.PlansDumpingImpl
2019-07-02 12:52:37,694  INFO PlansDumpingImpl:76 dumping plans...
2019-07-02 12:52:37,698  INFO Counter:70 [PopulationWriter] dumped person # 1
2019-07-02 12:52:37,699  INFO Counter:70 [PopulationWriter] dumped person # 2
2019-07-02 12:52:37,700  INFO Counter:70 [PopulationWriter] dumped person # 4
2019-07-02 12:52:37,702  INFO Counter:70 [PopulationWriter] dumped person # 8
2019-07-02 12:52:37,707  INFO Counter:70 [PopulationWriter] dumped person # 16
2019-07-02 12:52:37,722  INFO Counter:70 [PopulationWriter] dumped person # 32
2019-07-02 12:52:37,732  INFO Counter:70 [PopulationWriter] dumped person # 64
2019-07-02 12:52:37,746  INFO Counter:70 [PopulationWriter] dumped person # 128
2019-07-02 12:52:37,773  INFO Counter:70 [PopulationWriter] dumped person # 256
2019-07-02 12:52:37,818  INFO Counter:70 [PopulationWriter] dumped person # 512
2019-07-02 12:52:37,901  INFO Counter:70 [PopulationWriter] dumped person # 1024
2019-07-02 12:52:37,990  INFO PopulationWriter:139 Population written to: simulation_output/ITERS/it.0/0.plans.xml.gz
2019-07-02 12:52:37,991  INFO Counter:76 [PopulationWriter] dumped person # 1566
2019-07-02 12:52:37,991  INFO PlansDumpingImpl:93 finished plans dump.
2019-07-02 12:52:37,991  INFO ControlerListenerManagerImpl:229 calling notifyBeforeMobsim on org.matsim.core.population.VspPlansCleaner
2019-07-02 12:52:37,995  INFO ControlerListenerManagerImpl:232 [it.0] all ControlerBeforeMobsimListeners called.
2019-07-02 12:52:37,996  INFO PrepareForMobsimImpl:79 Network seems to be multimodal. Create car-only network which is handed over to PersonPrepareForSim.
2019-07-02 12:52:37,996  INFO NetworkImpl:167  node # 1
2019-07-02 12:52:37,996  INFO NetworkImpl:167  node # 4
2019-07-02 12:52:37,996  INFO NetworkImpl:167  node # 16
2019-07-02 12:52:37,996  INFO NetworkImpl:167  node # 64
2019-07-02 12:52:37,996  INFO NetworkImpl:167  node # 256
2019-07-02 12:52:37,996  INFO NetworkImpl:167  node # 1024
2019-07-02 12:52:37,997  INFO NetworkImpl:167  node # 4096
2019-07-02 12:52:37,999  INFO NetworkImpl:167  node # 16384
2019-07-02 12:52:38,012  INFO NetworkImpl:167  node # 65536
2019-07-02 12:52:38,014  INFO NetworkImpl:163  link # 1
2019-07-02 12:52:38,015  INFO NetworkImpl:163  link # 4
2019-07-02 12:52:38,015  INFO NetworkImpl:163  link # 16
2019-07-02 12:52:38,015  INFO NetworkImpl:163  link # 64
2019-07-02 12:52:38,016  INFO NetworkImpl:163  link # 256
2019-07-02 12:52:38,017  INFO NetworkImpl:163  link # 1024
2019-07-02 12:52:38,023  INFO NetworkImpl:163  link # 4096
2019-07-02 12:52:38,047  INFO NetworkImpl:163  link # 16384
2019-07-02 12:52:38,208  INFO NetworkImpl:163  link # 65536
2019-07-02 12:52:38,386 DEBUG NetworkRoutingProvider:75 requesting network routing module with routingMode=car;	mode=car
2019-07-02 12:52:38,409 DEBUG NetworkRoutingProvider:75 requesting network routing module with routingMode=car;	mode=car
2019-07-02 12:52:38,433 DEBUG NetworkRoutingProvider:75 requesting network routing module with routingMode=car;	mode=car
2019-07-02 12:52:38,457 DEBUG NetworkRoutingProvider:75 requesting network routing module with routingMode=car;	mode=car
2019-07-02 12:52:38,476 DEBUG NetworkRoutingProvider:75 requesting network routing module with routingMode=car;	mode=car
2019-07-02 12:52:38,495 DEBUG NetworkRoutingProvider:75 requesting network routing module with routingMode=car;	mode=car
2019-07-02 12:52:38,519 DEBUG NetworkRoutingProvider:75 requesting network routing module with routingMode=car;	mode=car
2019-07-02 12:52:38,539 DEBUG NetworkRoutingProvider:75 requesting network routing module with routingMode=car;	mode=car
2019-07-02 12:52:38,560  INFO Counter:70 [PersonPrepareForSim] handled person # 1
2019-07-02 12:52:38,560  INFO Counter:70 [PersonPrepareForSim] handled person # 32
2019-07-02 12:52:38,560  INFO Counter:70 [PersonPrepareForSim] handled person # 16
2019-07-02 12:52:38,560  INFO Counter:70 [PersonPrepareForSim] handled person # 8
2019-07-02 12:52:38,560  INFO Counter:70 [PersonPrepareForSim] handled person # 4
2019-07-02 12:52:38,560  INFO Counter:70 [PersonPrepareForSim] handled person # 256
2019-07-02 12:52:38,560  INFO Counter:70 [PersonPrepareForSim] handled person # 2
2019-07-02 12:52:38,560  INFO Counter:70 [PersonPrepareForSim] handled person # 128
2019-07-02 12:52:38,560  INFO Counter:70 [PersonPrepareForSim] handled person # 64
2019-07-02 12:52:38,561  INFO Counter:70 [PersonPrepareForSim] handled person # 512
2019-07-02 12:52:38,562  INFO Counter:70 [PersonPrepareForSim] handled person # 1024
2019-07-02 12:52:38,563  INFO Counter:76 [PersonPrepareForSim] handled person # 1566
2019-07-02 12:52:38,616  INFO MobsimListenerManager:49 calling addQueueSimulationListener
2019-07-02 12:52:38,616  INFO MobsimListenerManager:53   assigned class org.matsim.core.mobsim.framework.listeners.MobsimListener to interface org.matsim.core.mobsim.framework.listeners.MobsimInitializedListener
2019-07-02 12:52:38,616  INFO MobsimListenerManager:53   assigned class org.matsim.core.mobsim.framework.listeners.MobsimListener to interface org.matsim.core.mobsim.framework.listeners.MobsimBeforeCleanupListener
2019-07-02 12:52:38,617  INFO MobsimListenerManager:53   assigned class org.matsim.core.mobsim.framework.listeners.MobsimListener to interface org.matsim.vis.snapshotwriters.SnapshotWriterManager
2019-07-02 12:52:38,617  INFO MobsimListenerManager:53   assigned class org.matsim.core.mobsim.framework.listeners.MobsimListener to interface org.matsim.core.mobsim.framework.listeners.MobsimListener
2019-07-02 12:52:38,617  INFO MobsimListenerManager:53   assigned class org.matsim.core.mobsim.framework.listeners.MobsimListener to interface org.matsim.core.mobsim.framework.listeners.MobsimAfterSimStepListener
2019-07-02 12:52:39,033  INFO QSimProvider:111 Added MobsimEngine class org.matsim.core.mobsim.qsim.ActivityEngine
2019-07-02 12:52:39,033  INFO QSimProvider:117 Added Activityhandler class org.matsim.core.mobsim.qsim.ActivityEngine
2019-07-02 12:52:39,033  INFO QSimProvider:123 Added DepartureHandler class org.matsim.core.mobsim.qsim.qnetsimengine.VehicularDepartureHandler
2019-07-02 12:52:39,033  INFO QSimProvider:111 Added MobsimEngine class org.matsim.core.mobsim.qsim.qnetsimengine.QNetsimEngine
2019-07-02 12:52:39,033  INFO QSimProvider:111 Added MobsimEngine class org.matsim.core.mobsim.qsim.DefaultTeleportationEngine
2019-07-02 12:52:39,033  INFO QSimProvider:123 Added DepartureHandler class org.matsim.core.mobsim.qsim.DefaultTeleportationEngine
2019-07-02 12:52:39,033  INFO QSimProvider:129 Added AgentSource class org.matsim.core.mobsim.qsim.agents.PopulationAgentSource
2019-07-02 12:52:39,033  INFO MobsimListenerManager:49 calling addQueueSimulationListener
2019-07-02 12:52:39,033  INFO MobsimListenerManager:53   assigned class org.matsim.core.mobsim.framework.listeners.MobsimListener to interface org.matsim.core.mobsim.framework.listeners.MobsimBeforeSimStepListener
2019-07-02 12:52:39,033  INFO MobsimListenerManager:53   assigned class org.matsim.core.mobsim.framework.listeners.MobsimListener to interface org.matsim.core.mobsim.qsim.messagequeueengine.MessageQueueEngine
2019-07-02 12:52:39,034  INFO MobsimListenerManager:53   assigned class org.matsim.core.mobsim.framework.listeners.MobsimListener to interface org.matsim.core.mobsim.framework.listeners.MobsimListener
2019-07-02 12:52:39,034  INFO QSimProvider:135 Added MobsimListener class org.matsim.core.mobsim.qsim.messagequeueengine.MessageQueueEngine
2019-07-02 12:52:39,034  INFO QSimProvider:111 Added MobsimEngine class org.matsim.core.mobsim.qsim.pt.TransitQSimEngine
2019-07-02 12:52:39,034  INFO QSimProvider:123 Added DepartureHandler class org.matsim.core.mobsim.qsim.pt.TransitQSimEngine
2019-07-02 12:52:39,034  INFO QSimProvider:129 Added AgentSource class org.matsim.core.mobsim.qsim.pt.TransitQSimEngine
2019-07-02 12:52:39,076  INFO ReconstructingUmlaufBuilder:113 Generating UmlaufStuecke ...
2019-07-02 12:52:39,084  INFO ReconstructingUmlaufBuilder:126 ... done generating UmlaufStuecke
2019-07-02 12:52:39,397  INFO QNetsimEngine:506 Assigned 8854 nodes and 19627 links to QSimEngineRunner #0
2019-07-02 12:52:39,397  INFO QNetsimEngine:506 Assigned 8854 nodes and 19618 links to QSimEngineRunner #1
2019-07-02 12:52:39,397  INFO QNetsimEngine:506 Assigned 8854 nodes and 19662 links to QSimEngineRunner #2
2019-07-02 12:52:39,397  INFO QNetsimEngine:506 Assigned 8854 nodes and 19560 links to QSimEngineRunner #3
2019-07-02 12:52:39,398  INFO QNetsimEngine:506 Assigned 8854 nodes and 19740 links to QSimEngineRunner #4
2019-07-02 12:52:39,398  INFO QNetsimEngine:506 Assigned 8854 nodes and 19587 links to QSimEngineRunner #5
2019-07-02 12:52:39,398  INFO QNetsimEngine:506 Assigned 8853 nodes and 19776 links to QSimEngineRunner #6
2019-07-02 12:52:39,398  INFO QNetsimEngine:506 Assigned 8853 nodes and 19696 links to QSimEngineRunner #7
2019-07-02 12:52:39,439  INFO EventsManagerImpl:134  event # 1
2019-07-02 12:52:39,442  INFO EventsManagerImpl:134  event # 4
2019-07-02 12:52:39,442  INFO QNetsimEngine:346 SIMULATION (QNetsimEngine) AT 00:02:00 : #links=2 #nodes=0
2019-07-02 12:52:39,442  INFO QSim:505 SIMULATION (NEW QSim) AT 00:02:00 : #Veh=42152 lost=0 simT=0.0s realT=0s; (s/r): 0.0
2019-07-02 12:52:39,443  INFO Gbl:58 used RAM: 841290424B = 821572kB = 802MB  free: 563801416B = 537MB  total: 1405091840B = 1340MB
2019-07-02 12:52:39,457  INFO EventsManagerImpl:134  event # 16
2019-07-02 12:52:39,477  INFO EventsManagerImpl:134  event # 64
2019-07-02 12:52:39,521  INFO EventsManagerImpl:134  event # 256
2019-07-02 12:52:39,714  INFO QNetsimEngine:346 SIMULATION (QNetsimEngine) AT 01:00:00 : #links=4 #nodes=0
2019-07-02 12:52:39,714  INFO QSim:505 SIMULATION (NEW QSim) AT 01:00:00 : #Veh=42147 lost=0 simT=3480.0s realT=1s; (s/r): 3480.0
2019-07-02 12:52:39,714  INFO Gbl:58 used RAM: 865976200B = 845679kB = 825MB  free: 539115640B = 514MB  total: 1405091840B = 1340MB
2019-07-02 12:52:39,847  INFO EventsManagerImpl:134  event # 1024
2019-07-02 12:52:39,871  INFO QNetsimEngine:346 SIMULATION (QNetsimEngine) AT 02:00:00 : #links=5 #nodes=1
2019-07-02 12:52:39,871  INFO QSim:505 SIMULATION (NEW QSim) AT 02:00:00 : #Veh=42147 lost=0 simT=7080.0s realT=1s; (s/r): 7080.0
2019-07-02 12:52:39,871  INFO Gbl:58 used RAM: 873254984B = 852788kB = 832MB  free: 531836856B = 507MB  total: 1405091840B = 1340MB
2019-07-02 12:52:39,998  INFO QNetsimEngine:346 SIMULATION (QNetsimEngine) AT 03:00:00 : #links=6 #nodes=0
2019-07-02 12:52:39,998  INFO QSim:505 SIMULATION (NEW QSim) AT 03:00:00 : #Veh=42147 lost=0 simT=10680.0s realT=1s; (s/r): 10680.0
2019-07-02 12:52:39,998  INFO Gbl:58 used RAM: 873254984B = 852788kB = 832MB  free: 531836856B = 507MB  total: 1405091840B = 1340MB
2019-07-02 12:52:40,143  INFO QNetsimEngine:346 SIMULATION (QNetsimEngine) AT 04:00:00 : #links=13 #nodes=0
2019-07-02 12:52:40,144  INFO QSim:505 SIMULATION (NEW QSim) AT 04:00:00 : #Veh=42147 lost=0 simT=14280.0s realT=1s; (s/r): 14280.0
2019-07-02 12:52:40,144  INFO Gbl:58 used RAM: 884361056B = 863633kB = 843MB  free: 520730784B = 496MB  total: 1405091840B = 1340MB
2019-07-02 12:52:40,173  INFO EventsManagerImpl:134  event # 4096
2019-07-02 12:52:40,187  INFO VehicularDepartureHandler:110 teleport vehicle 926932800 from link 708331 to link 116718
2019-07-02 12:52:40,372  INFO QNetsimEngine:346 SIMULATION (QNetsimEngine) AT 05:00:00 : #links=77 #nodes=22
2019-07-02 12:52:40,372  INFO QSim:505 SIMULATION (NEW QSim) AT 05:00:00 : #Veh=42135 lost=0 simT=17880.0s realT=1s; (s/r): 17880.0
2019-07-02 12:52:40,372  INFO Gbl:58 used RAM: 903122840B = 881955kB = 861MB  free: 501969000B = 478MB  total: 1405091840B = 1340MB
2019-07-02 12:52:40,401 ERROR TransitAgentImpl:99 pt-leg has no TransitRoute. Removing agent from simulation. Agent 1576867100
2019-07-02 12:52:40,401  INFO TransitAgentImpl:100 route: org.matsim.core.population.routes.GenericRouteImpl {"inVehicleTime":780.0,"transferTime":302.2780374288268,"accessStopIndex":10,"egressStopindex":19,"transitRouteId":"00001_001","transitLineId":"SBW_line2","departureId":"164561"}
[...]
2019-07-02 12:53:02,275  INFO AbstractController:167 ### ITERATION 0 ENDS
2019-07-02 12:53:02,275  INFO AbstractController:168 ###################################################
2019-07-02 12:53:02,275  INFO AbstractController:123 ###################################################
2019-07-02 12:53:02,275  INFO AbstractController:124 ### ITERATION 1 BEGINS
2019-07-02 12:53:02,275  INFO ControlerListenerManagerImpl:145 calling notifyIterationStarts on org.matsim.analysis.LegHistogramListener
2019-07-02 12:53:02,276  INFO ControlerListenerManagerImpl:145 calling notifyIterationStarts on org.matsim.core.replanning.ReplanningContextImpl
2019-07-02 12:53:02,276  INFO ControlerListenerManagerImpl:145 calling notifyIterationStarts on org.matsim.core.scoring.ExperiencedPlansServiceImpl$1
2019-07-02 12:53:02,276  INFO ControlerListenerManagerImpl:145 calling notifyIterationStarts on org.matsim.core.scoring.ScoringFunctionsForPopulation$1
2019-07-02 12:53:02,279  INFO ControlerListenerManagerImpl:148 [it.1] all ControlerIterationStartsListeners called.
2019-07-02 12:53:02,280  INFO ControlerListenerManagerImpl:205 calling notifyReplanning on org.matsim.core.controler.corelisteners.PlansReplanningImpl
2019-07-02 12:53:02,281 DEBUG NetworkRoutingProvider:75 requesting network routing module with routingMode=car;	mode=car
2019-07-02 12:53:02,281 DEBUG NetworkRoutingProvider:75 requesting network routing module with routingMode=car;	mode=car
2019-07-02 12:53:02,282 DEBUG NetworkRoutingProvider:75 requesting network routing module with routingMode=car;	mode=car
2019-07-02 12:53:02,282 DEBUG NetworkRoutingProvider:75 requesting network routing module with routingMode=car;	mode=car
2019-07-02 12:53:02,282 DEBUG NetworkRoutingProvider:75 requesting network routing module with routingMode=car;	mode=car
2019-07-02 12:53:02,282 DEBUG NetworkRoutingProvider:75 requesting network routing module with routingMode=car;	mode=car
2019-07-02 12:53:02,283 DEBUG NetworkRoutingProvider:75 requesting network routing module with routingMode=car;	mode=car
2019-07-02 12:53:02,283 DEBUG NetworkRoutingProvider:75 requesting network routing module with routingMode=car;	mode=car
2019-07-02 12:53:02,283 DEBUG NetworkRoutingProvider:75 requesting network routing module with routingMode=car;	mode=car
2019-07-02 12:53:02,284 DEBUG NetworkRoutingProvider:75 requesting network routing module with routingMode=car;	mode=car
2019-07-02 12:53:02,284 DEBUG NetworkRoutingProvider:75 requesting network routing module with routingMode=car;	mode=car
2019-07-02 12:53:02,285 DEBUG NetworkRoutingProvider:75 requesting network routing module with routingMode=car;	mode=car
2019-07-02 12:53:02,285 DEBUG NetworkRoutingProvider:75 requesting network routing module with routingMode=car;	mode=car
2019-07-02 12:53:02,285 DEBUG NetworkRoutingProvider:75 requesting network routing module with routingMode=car;	mode=car
2019-07-02 12:53:02,285 DEBUG NetworkRoutingProvider:75 requesting network routing module with routingMode=car;	mode=car
2019-07-02 12:53:02,286 DEBUG NetworkRoutingProvider:75 requesting network routing module with routingMode=car;	mode=car
2019-07-02 12:53:02,301  INFO AbstractMultithreadedModule:141 [PlanRouter] starting 8 threads, handling 0 plans
2019-07-02 12:53:02,303  INFO AbstractMultithreadedModule:156 [PlanRouter] all 8 threads finished.
2019-07-02 12:53:02,303  INFO GenericPlanStrategyImpl:125 Plan-Strategy finished, 0 plans handled. Strategy: RandomPlanSelector_ReRoute
2019-07-02 12:53:02,303  INFO GenericPlanStrategyImpl:125 Plan-Strategy finished, 0 plans handled. Strategy: ExpBetaPlanChanger
2019-07-02 12:53:02,304  INFO AbstractMultithreadedModule:141 [TripsToLegsAlgorithm] starting 8 threads, handling 1566 plans
2019-07-02 12:53:02,305  INFO Counter:70 [TripsToLegsAlgorithm] handled plan # 1
2019-07-02 12:53:02,305  INFO Counter:70 [TripsToLegsAlgorithm] handled plan # 16
2019-07-02 12:53:02,305  INFO Counter:70 [TripsToLegsAlgorithm] handled plan # 32
2019-07-02 12:53:02,305  INFO Counter:70 [TripsToLegsAlgorithm] handled plan # 8
2019-07-02 12:53:02,305  INFO Counter:70 [TripsToLegsAlgorithm] handled plan # 2
2019-07-02 12:53:02,305  INFO Counter:70 [TripsToLegsAlgorithm] handled plan # 4
2019-07-02 12:53:02,305  INFO Counter:70 [TripsToLegsAlgorithm] handled plan # 128
2019-07-02 12:53:02,306  INFO Counter:70 [TripsToLegsAlgorithm] handled plan # 256
2019-07-02 12:53:02,307  INFO Counter:70 [TripsToLegsAlgorithm] handled plan # 512
2019-07-02 12:53:02,305  INFO Counter:70 [TripsToLegsAlgorithm] handled plan # 64
2019-07-02 12:53:02,308  INFO Counter:70 [TripsToLegsAlgorithm] handled plan # 1024
2019-07-02 12:53:02,311  INFO AbstractMultithreadedModule:156 [TripsToLegsAlgorithm] all 8 threads finished.
2019-07-02 12:53:02,311 DEBUG NetworkRoutingProvider:75 requesting network routing module with routingMode=car;	mode=car
2019-07-02 12:53:02,356 DEBUG NetworkRoutingProvider:75 requesting network routing module with routingMode=car;	mode=car
2019-07-02 12:53:02,356 DEBUG NetworkRoutingProvider:75 requesting network routing module with routingMode=car;	mode=car
2019-07-02 12:53:02,356 DEBUG NetworkRoutingProvider:75 requesting network routing module with routingMode=car;	mode=car
2019-07-02 12:53:02,357 DEBUG NetworkRoutingProvider:75 requesting network routing module with routingMode=car;	mode=car
2019-07-02 12:53:02,357 DEBUG NetworkRoutingProvider:75 requesting network routing module with routingMode=car;	mode=car
2019-07-02 12:53:02,357 DEBUG NetworkRoutingProvider:75 requesting network routing module with routingMode=car;	mode=car
2019-07-02 12:53:02,357 DEBUG NetworkRoutingProvider:75 requesting network routing module with routingMode=car;	mode=car
2019-07-02 12:53:02,358  INFO AbstractMultithreadedModule:141 [DiscreteModeChoiceAlgorithm] starting 8 threads, handling 1566 plans
2019-07-02 12:53:02,386 ERROR AbstractMultithreadedModule$ExceptionHandler:210 Thread DiscreteModeChoiceAlgorithm.3 died with exception. Will stop after all threads finished.
java.lang.IllegalStateException: Mode chain generator selected in config file : filterRandomThreshold but the module is not declared in config file
	at ch.ethz.matsim.discrete_mode_choice.model.mode_chain.FilterRandomThresholdModeChainGenerator$Factory.createModeChainGenerator(FilterRandomThresholdModeChainGenerator.java:106)
	at ch.ethz.matsim.discrete_mode_choice.model.tour_based.TourBasedModel.chooseModes(TourBasedModel.java:66)
	at ch.ethz.matsim.discrete_mode_choice.replanning.DiscreteModeChoiceAlgorithm.run(DiscreteModeChoiceAlgorithm.java:57)
	at org.matsim.core.replanning.modules.AbstractMultithreadedModule$PlanAlgoThread.run(AbstractMultithreadedModule.java:234)
	at java.lang.Thread.run(Unknown Source)
2019-07-02 12:53:02,386 ERROR AbstractMultithreadedModule$ExceptionHandler:210 Thread DiscreteModeChoiceAlgorithm.5 died with exception. Will stop after all threads finished.
java.lang.IllegalStateException: Mode chain generator selected in config file : filterRandomThreshold but the module is not declared in config file
	at ch.ethz.matsim.discrete_mode_choice.model.mode_chain.FilterRandomThresholdModeChainGenerator$Factory.createModeChainGenerator(FilterRandomThresholdModeChainGenerator.java:106)
	at ch.ethz.matsim.discrete_mode_choice.model.tour_based.TourBasedModel.chooseModes(TourBasedModel.java:66)
	at ch.ethz.matsim.discrete_mode_choice.replanning.DiscreteModeChoiceAlgorithm.run(DiscreteModeChoiceAlgorithm.java:57)
	at org.matsim.core.replanning.modules.AbstractMultithreadedModule$PlanAlgoThread.run(AbstractMultithreadedModule.java:234)
	at java.lang.Thread.run(Unknown Source)
2019-07-02 12:53:02,386 ERROR AbstractMultithreadedModule$ExceptionHandler:210 Thread DiscreteModeChoiceAlgorithm.4 died with exception. Will stop after all threads finished.
java.lang.IllegalStateException: Mode chain generator selected in config file : filterRandomThreshold but the module is not declared in config file
	at ch.ethz.matsim.discrete_mode_choice.model.mode_chain.FilterRandomThresholdModeChainGenerator$Factory.createModeChainGenerator(FilterRandomThresholdModeChainGenerator.java:106)
	at ch.ethz.matsim.discrete_mode_choice.model.tour_based.TourBasedModel.chooseModes(TourBasedModel.java:66)
	at ch.ethz.matsim.discrete_mode_choice.replanning.DiscreteModeChoiceAlgorithm.run(DiscreteModeChoiceAlgorithm.java:57)
	at org.matsim.core.replanning.modules.AbstractMultithreadedModule$PlanAlgoThread.run(AbstractMultithreadedModule.java:234)
	at java.lang.Thread.run(Unknown Source)
2019-07-02 12:53:02,386 ERROR AbstractMultithreadedModule$ExceptionHandler:210 Thread DiscreteModeChoiceAlgorithm.6 died with exception. Will stop after all threads finished.
java.lang.IllegalStateException: Mode chain generator selected in config file : filterRandomThreshold but the module is not declared in config file
	at ch.ethz.matsim.discrete_mode_choice.model.mode_chain.FilterRandomThresholdModeChainGenerator$Factory.createModeChainGenerator(FilterRandomThresholdModeChainGenerator.java:106)
	at ch.ethz.matsim.discrete_mode_choice.model.tour_based.TourBasedModel.chooseModes(TourBasedModel.java:66)
	at ch.ethz.matsim.discrete_mode_choice.replanning.DiscreteModeChoiceAlgorithm.run(DiscreteModeChoiceAlgorithm.java:57)
	at org.matsim.core.replanning.modules.AbstractMultithreadedModule$PlanAlgoThread.run(AbstractMultithreadedModule.java:234)
	at java.lang.Thread.run(Unknown Source)
2019-07-02 12:53:02,386 ERROR AbstractMultithreadedModule$ExceptionHandler:210 Thread DiscreteModeChoiceAlgorithm.2 died with exception. Will stop after all threads finished.
java.lang.IllegalStateException: Mode chain generator selected in config file : filterRandomThreshold but the module is not declared in config file
	at ch.ethz.matsim.discrete_mode_choice.model.mode_chain.FilterRandomThresholdModeChainGenerator$Factory.createModeChainGenerator(FilterRandomThresholdModeChainGenerator.java:106)
	at ch.ethz.matsim.discrete_mode_choice.model.tour_based.TourBasedModel.chooseModes(TourBasedModel.java:66)
	at ch.ethz.matsim.discrete_mode_choice.replanning.DiscreteModeChoiceAlgorithm.run(DiscreteModeChoiceAlgorithm.java:57)
	at org.matsim.core.replanning.modules.AbstractMultithreadedModule$PlanAlgoThread.run(AbstractMultithreadedModule.java:234)
	at java.lang.Thread.run(Unknown Source)
2019-07-02 12:53:02,386 ERROR AbstractMultithreadedModule$ExceptionHandler:210 Thread DiscreteModeChoiceAlgorithm.1 died with exception. Will stop after all threads finished.
java.lang.IllegalStateException: Mode chain generator selected in config file : filterRandomThreshold but the module is not declared in config file
	at ch.ethz.matsim.discrete_mode_choice.model.mode_chain.FilterRandomThresholdModeChainGenerator$Factory.createModeChainGenerator(FilterRandomThresholdModeChainGenerator.java:106)
	at ch.ethz.matsim.discrete_mode_choice.model.tour_based.TourBasedModel.chooseModes(TourBasedModel.java:66)
	at ch.ethz.matsim.discrete_mode_choice.replanning.DiscreteModeChoiceAlgorithm.run(DiscreteModeChoiceAlgorithm.java:57)
	at org.matsim.core.replanning.modules.AbstractMultithreadedModule$PlanAlgoThread.run(AbstractMultithreadedModule.java:234)
	at java.lang.Thread.run(Unknown Source)
2019-07-02 12:53:02,386 ERROR AbstractMultithreadedModule$ExceptionHandler:210 Thread DiscreteModeChoiceAlgorithm.0 died with exception. Will stop after all threads finished.
java.lang.IllegalStateException: Mode chain generator selected in config file : filterRandomThreshold but the module is not declared in config file
	at ch.ethz.matsim.discrete_mode_choice.model.mode_chain.FilterRandomThresholdModeChainGenerator$Factory.createModeChainGenerator(FilterRandomThresholdModeChainGenerator.java:106)
	at ch.ethz.matsim.discrete_mode_choice.model.tour_based.TourBasedModel.chooseModes(TourBasedModel.java:66)
	at ch.ethz.matsim.discrete_mode_choice.replanning.DiscreteModeChoiceAlgorithm.run(DiscreteModeChoiceAlgorithm.java:57)
	at org.matsim.core.replanning.modules.AbstractMultithreadedModule$PlanAlgoThread.run(AbstractMultithreadedModule.java:234)
	at java.lang.Thread.run(Unknown Source)
2019-07-02 12:53:02,386 ERROR AbstractMultithreadedModule$ExceptionHandler:210 Thread DiscreteModeChoiceAlgorithm.7 died with exception. Will stop after all threads finished.
java.lang.IllegalStateException: Mode chain generator selected in config file : filterRandomThreshold but the module is not declared in config file
	at ch.ethz.matsim.discrete_mode_choice.model.mode_chain.FilterRandomThresholdModeChainGenerator$Factory.createModeChainGenerator(FilterRandomThresholdModeChainGenerator.java:106)
	at ch.ethz.matsim.discrete_mode_choice.model.tour_based.TourBasedModel.chooseModes(TourBasedModel.java:66)
	at ch.ethz.matsim.discrete_mode_choice.replanning.DiscreteModeChoiceAlgorithm.run(DiscreteModeChoiceAlgorithm.java:57)
	at org.matsim.core.replanning.modules.AbstractMultithreadedModule$PlanAlgoThread.run(AbstractMultithreadedModule.java:234)
	at java.lang.Thread.run(Unknown Source)
2019-07-02 12:53:02,390  INFO AbstractMultithreadedModule:156 [DiscreteModeChoiceAlgorithm] all 8 threads finished.
2019-07-02 12:53:02,390 ERROR MatsimRuntimeModifications:54 Getting uncaught Exception in Thread main
java.lang.RuntimeException: Some threads crashed, thus not all plans may have been handled.
	at org.matsim.core.replanning.modules.AbstractMultithreadedModule.finishReplanning(AbstractMultithreadedModule.java:159)
	at org.matsim.core.replanning.GenericPlanStrategyImpl.finish(GenericPlanStrategyImpl.java:121)
	at org.matsim.core.replanning.GenericStrategyManager.run(GenericStrategyManager.java:221)
	at org.matsim.core.replanning.StrategyManager.run(StrategyManager.java:191)
	at org.matsim.core.replanning.StrategyManager.run(StrategyManager.java:173)
	at org.matsim.core.controler.corelisteners.PlansReplanningImpl.notifyReplanning(PlansReplanningImpl.java:58)
	at org.matsim.core.controler.ControlerListenerManagerImpl.fireControlerReplanningEvent(ControlerListenerManagerImpl.java:206)
	at org.matsim.core.controler.AbstractController$3.run(AbstractController.java:139)
	at org.matsim.core.controler.AbstractController.iterationStep(AbstractController.java:229)
	at org.matsim.core.controler.AbstractController.iteration(AbstractController.java:136)
	at org.matsim.core.controler.AbstractController.doIterations(AbstractController.java:112)
	at org.matsim.core.controler.AbstractController.access$100(AbstractController.java:28)
	at org.matsim.core.controler.AbstractController$1.run(AbstractController.java:80)
	at org.matsim.core.controler.MatsimRuntimeModifications.run(MatsimRuntimeModifications.java:48)
	at org.matsim.core.controler.MatsimRuntimeModifications.run(MatsimRuntimeModifications.java:31)
	at org.matsim.core.controler.AbstractController.run(AbstractController.java:88)
	at org.matsim.core.controler.NewControler.run(NewControler.java:84)
	at org.matsim.core.controler.Controler.run(Controler.java:240)
	at ch.ethz.matsim.discrete_mode_choice.TestDMC.main(TestDMC.java:71)
Caused by: java.lang.IllegalStateException: Mode chain generator selected in config file : filterRandomThreshold but the module is not declared in config file
	at ch.ethz.matsim.discrete_mode_choice.model.mode_chain.FilterRandomThresholdModeChainGenerator$Factory.createModeChainGenerator(FilterRandomThresholdModeChainGenerator.java:106)
	at ch.ethz.matsim.discrete_mode_choice.model.tour_based.TourBasedModel.chooseModes(TourBasedModel.java:66)
	at ch.ethz.matsim.discrete_mode_choice.replanning.DiscreteModeChoiceAlgorithm.run(DiscreteModeChoiceAlgorithm.java:57)
	at org.matsim.core.replanning.modules.AbstractMultithreadedModule$PlanAlgoThread.run(AbstractMultithreadedModule.java:234)
	at java.lang.Thread.run(Unknown Source)
2019-07-02 12:53:02,391  INFO MatsimRuntimeModifications:58 S H U T D O W N   ---   start shutdown.
2019-07-02 12:53:02,391 ERROR MatsimRuntimeModifications:60 ERROR --- This is an unexpected shutdown!
2019-07-02 12:53:02,391 ERROR MatsimRuntimeModifications:63 Shutdown possibly caused by the following Exception:
java.lang.RuntimeException: Some threads crashed, thus not all plans may have been handled.
	at org.matsim.core.replanning.modules.AbstractMultithreadedModule.finishReplanning(AbstractMultithreadedModule.java:159)
	at org.matsim.core.replanning.GenericPlanStrategyImpl.finish(GenericPlanStrategyImpl.java:121)
	at org.matsim.core.replanning.GenericStrategyManager.run(GenericStrategyManager.java:221)
	at org.matsim.core.replanning.StrategyManager.run(StrategyManager.java:191)
	at org.matsim.core.replanning.StrategyManager.run(StrategyManager.java:173)
	at org.matsim.core.controler.corelisteners.PlansReplanningImpl.notifyReplanning(PlansReplanningImpl.java:58)
	at org.matsim.core.controler.ControlerListenerManagerImpl.fireControlerReplanningEvent(ControlerListenerManagerImpl.java:206)
	at org.matsim.core.controler.AbstractController$3.run(AbstractController.java:139)
	at org.matsim.core.controler.AbstractController.iterationStep(AbstractController.java:229)
	at org.matsim.core.controler.AbstractController.iteration(AbstractController.java:136)
	at org.matsim.core.controler.AbstractController.doIterations(AbstractController.java:112)
	at org.matsim.core.controler.AbstractController.access$100(AbstractController.java:28)
	at org.matsim.core.controler.AbstractController$1.run(AbstractController.java:80)
	at org.matsim.core.controler.MatsimRuntimeModifications.run(MatsimRuntimeModifications.java:48)
	at org.matsim.core.controler.MatsimRuntimeModifications.run(MatsimRuntimeModifications.java:31)
	at org.matsim.core.controler.AbstractController.run(AbstractController.java:88)
	at org.matsim.core.controler.NewControler.run(NewControler.java:84)
	at org.matsim.core.controler.Controler.run(Controler.java:240)
	at ch.ethz.matsim.discrete_mode_choice.TestDMC.main(TestDMC.java:71)
Caused by: java.lang.IllegalStateException: Mode chain generator selected in config file : filterRandomThreshold but the module is not declared in config file
	at ch.ethz.matsim.discrete_mode_choice.model.mode_chain.FilterRandomThresholdModeChainGenerator$Factory.createModeChainGenerator(FilterRandomThresholdModeChainGenerator.java:106)
	at ch.ethz.matsim.discrete_mode_choice.model.tour_based.TourBasedModel.chooseModes(TourBasedModel.java:66)
	at ch.ethz.matsim.discrete_mode_choice.replanning.DiscreteModeChoiceAlgorithm.run(DiscreteModeChoiceAlgorithm.java:57)
	at org.matsim.core.replanning.modules.AbstractMultithreadedModule$PlanAlgoThread.run(AbstractMultithreadedModule.java:234)
	at java.lang.Thread.run(Unknown Source)
2019-07-02 12:53:02,391  INFO ControlerListenerManagerImpl:121 calling notifyShutdown on org.matsim.core.controler.corelisteners.EventsHandlingImpl
2019-07-02 12:53:02,391  INFO ControlerListenerManagerImpl:121 calling notifyShutdown on org.matsim.core.controler.corelisteners.DumpDataAtEndImpl
2019-07-02 12:53:02,392  INFO ControlerListenerManagerImpl:126 calling notifyShutdown on org.matsim.analysis.ModeStatsControlerListener
2019-07-02 12:53:02,392  INFO ControlerListenerManagerImpl:126 calling notifyShutdown on org.matsim.analysis.ScoreStatsControlerListener
2019-07-02 12:53:02,392  INFO ControlerListenerManagerImpl:126 calling notifyShutdown on org.matsim.analysis.TravelDistanceStatsControlerListener
2019-07-02 12:53:02,392  INFO ControlerListenerManagerImpl:129 all ControlerShutdownListeners called.
2019-07-02 12:53:02,392 ERROR MatsimRuntimeModifications:78 ERROR --- MATSim unexpectedly terminated. Please check the output or the logfile with warnings and errors for hints.
2019-07-02 12:53:02,392 ERROR MatsimRuntimeModifications:79 ERROR --- results should not be used for further analysis.
2019-07-02 12:53:02,393  INFO MatsimRuntimeModifications:81 S H U T D O W N   ---   shutdown completed.
2019-07-02 12:53:02,393 ERROR MatsimRuntimeModifications:83 ERROR --- This was an unexpected shutdown! See the log file for a possible reason.
